omegapdb_1xom_13.log
 OpenBabel09261812563D

 50 52  0  0  1  0  0  0  0  0999 V2000
    6.2302    1.7986   -0.4280 O   0  0  0  0  0  0  0  0  0  0  0  0
    5.5504    0.6803   -0.7549 C   0  0  0  0  0  0  0  0  0  0  0  0
    6.0962   -0.3900   -0.8835 O   0  0  0  0  0  0  0  0  0  0  0  0
    4.0696    0.9556   -0.9025 C   0  0  1  0  0  0  0  0  0  0  0  0
    3.3112   -0.2977   -1.3699 C   0  0  0  0  0  0  0  0  0  0  0  0
    2.8493   -1.1260   -0.1748 C   0  0  0  0  0  0  0  0  0  0  0  0
    1.7877   -0.3533    0.6820 C   0  0  2  0  0  0  0  0  0  0  0  0
    2.0177    1.1740    0.5334 C   0  0  0  0  0  0  0  0  0  0  0  0
    3.5072    1.4929    0.4392 C   0  0  0  0  0  0  0  0  0  0  0  0
    2.0303   -0.6949    2.1009 C   0  0  0  0  0  0  0  0  0  0  0  0
    2.2469   -0.9567    3.2076 N   0  0  0  0  0  0  0  0  0  0  0  0
    0.3576   -0.7980    0.3333 C   0  0  0  0  0  0  0  0  0  0  0  0
   -0.0065   -2.1254    0.5488 C   0  0  0  0  0  0  0  0  0  0  0  0
   -1.2778   -2.5930    0.2305 C   0  0  0  0  0  0  0  0  0  0  0  0
   -2.2269   -1.7316   -0.3156 C   0  0  0  0  0  0  0  0  0  0  0  0
   -3.4857   -2.0913   -0.6788 O   0  0  0  0  0  0  0  0  0  0  0  0
   -3.8502   -3.4456   -0.5123 C   0  0  0  0  0  0  0  0  0  0  0  0
   -1.8819   -0.3841   -0.5151 C   0  0  0  0  0  0  0  0  0  0  0  0
   -0.6085    0.0636   -0.1901 C   0  0  0  0  0  0  0  0  0  0  0  0
   -2.7645    0.4902   -1.0884 O   0  0  0  0  0  0  0  0  0  0  0  0
   -3.8719    0.8771   -0.2741 C   0  0  0  0  0  0  0  0  0  0  0  0
   -4.8685    1.6554   -1.1281 C   0  0  0  0  0  0  0  0  0  0  0  0
   -5.6763    2.5035   -0.1219 C   0  0  0  0  0  0  0  0  0  0  0  0
   -4.8770    2.4609    1.2091 C   0  0  0  0  0  0  0  0  0  0  0  0
   -3.5155    1.8574    0.8433 C   0  0  0  0  0  0  0  0  0  0  0  0
    7.1583    1.5296   -0.3266 H   0  0  0  0  0  0  0  0  0  0  0  0
    3.9738    1.7479   -1.6559 H   0  0  0  0  0  0  0  0  0  0  0  0
    2.4455   -0.0059   -1.9766 H   0  0  0  0  0  0  0  0  0  0  0  0
    3.9623   -0.9040   -2.0053 H   0  0  0  0  0  0  0  0  0  0  0  0
    2.4234   -2.0779   -0.5032 H   0  0  0  0  0  0  0  0  0  0  0  0
    3.7237   -1.3662    0.4405 H   0  0  0  0  0  0  0  0  0  0  0  0
    1.5322    1.5230   -0.3835 H   0  0  0  0  0  0  0  0  0  0  0  0
    1.5470    1.7037    1.3678 H   0  0  0  0  0  0  0  0  0  0  0  0
    4.0313    1.0370    1.2897 H   0  0  0  0  0  0  0  0  0  0  0  0
    3.6812    2.5697    0.5137 H   0  0  0  0  0  0  0  0  0  0  0  0
    0.7099   -2.8191    0.9846 H   0  0  0  0  0  0  0  0  0  0  0  0
   -1.5149   -3.6362    0.4100 H   0  0  0  0  0  0  0  0  0  0  0  0
   -3.2050   -4.1078   -1.1034 H   0  0  0  0  0  0  0  0  0  0  0  0
   -3.8096   -3.7464    0.5424 H   0  0  0  0  0  0  0  0  0  0  0  0
   -4.8768   -3.5274   -0.8724 H   0  0  0  0  0  0  0  0  0  0  0  0
   -0.4144    1.1160   -0.3675 H   0  0  0  0  0  0  0  0  0  0  0  0
   -4.3431   -0.0209    0.1459 H   0  0  0  0  0  0  0  0  0  0  0  0
   -4.2891    2.2941   -1.8052 H   0  0  0  0  0  0  0  0  0  0  0  0
   -5.4884    0.9996   -1.7460 H   0  0  0  0  0  0  0  0  0  0  0  0
   -6.6853    2.1027    0.0190 H   0  0  0  0  0  0  0  0  0  0  0  0
   -5.7957    3.5292   -0.4846 H   0  0  0  0  0  0  0  0  0  0  0  0
   -4.7838    3.4454    1.6773 H   0  0  0  0  0  0  0  0  0  0  0  0
   -5.3857    1.8130    1.9327 H   0  0  0  0  0  0  0  0  0  0  0  0
   -2.8481    2.6229    0.4250 H   0  0  0  0  0  0  0  0  0  0  0  0
   -3.0042    1.3876    1.6900 H   0  0  0  0  0  0  0  0  0  0  0  0
  1 26  1  0  0  0  0
  2  1  1  0  0  0  0
  3  2  2  0  0  0  0
  4 27  1  6  0  0  0
  4  2  1  0  0  0  0
  4  9  1  0  0  0  0
  5  4  1  0  0  0  0
  5  6  1  0  0  0  0
  6 31  1  0  0  0  0
  6  7  1  0  0  0  0
  7 10  1  1  0  0  0
  8  7  1  0  0  0  0
  8 33  1  0  0  0  0
  9 35  1  0  0  0  0
  9  8  1  0  0  0  0
  9 34  1  0  0  0  0
 10 11  3  0  0  0  0
 12 13  1  0  0  0  0
 12  7  1  0  0  0  0
 13 36  1  0  0  0  0
 14 37  1  0  0  0  0
 14 13  2  0  0  0  0
 15 14  1  0  0  0  0
 16 17  1  0  0  0  0
 16 15  1  0  0  0  0
 17 39  1  0  0  0  0
 18 15  2  0  0  0  0
 18 19  1  0  0  0  0
 19 12  2  0  0  0  0
 20 18  1  0  0  0  0
 20 21  1  0  0  0  0
 21 42  1  0  0  0  0
 21 25  1  0  0  0  0
 22 21  1  0  0  0  0
 22 23  1  0  0  0  0
 23 45  1  0  0  0  0
 23 24  1  0  0  0  0
 24 47  1  0  0  0  0
 24 48  1  0  0  0  0
 25 24  1  0  0  0  0
 25 50  1  0  0  0  0
 28  5  1  0  0  0  0
 29  5  1  0  0  0  0
 30  6  1  0  0  0  0
 32  8  1  0  0  0  0
 38 17  1  0  0  0  0
 40 17  1  0  0  0  0
 41 19  1  0  0  0  0
 43 22  1  0  0  0  0
 44 22  1  0  0  0  0
 46 23  1  0  0  0  0
 49 25  1  0  0  0  0
M  END
