omegapdb_1gs5_11.log
 OpenBabel09261812563D

 24 23  0  0  1  0  0  0  0  0999 V2000
   -0.5932    0.5798    0.7120 C   0  0  2  0  0  0  0  0  0  0  0  0
   -1.6124    1.5496    0.1067 C   0  0  0  0  0  0  0  0  0  0  0  0
   -2.8073    1.3963    0.1524 O   0  0  0  0  0  0  0  0  0  0  0  0
   -1.0341    2.6423   -0.4189 O   0  0  0  0  0  0  0  0  0  0  0  0
    0.7564    0.5698   -0.0152 C   0  0  0  0  0  0  0  0  0  0  0  0
    1.7576   -0.3552    0.6784 C   0  0  0  0  0  0  0  0  0  0  0  0
    3.1160   -0.3625    0.0221 C   0  0  0  0  0  0  0  0  0  0  0  0
    3.7583   -1.3443   -0.2595 O   0  0  0  0  0  0  0  0  0  0  0  0
    3.5764    0.8869   -0.2079 O   0  0  0  0  0  0  0  0  0  0  0  0
   -1.1895   -0.7354    0.8438 N   0  0  0  0  0  0  0  0  0  0  0  0
   -1.7009   -1.3622   -0.2699 C   0  0  0  0  0  0  0  0  0  0  0  0
   -1.4492   -0.9772   -1.3977 O   0  0  0  0  0  0  0  0  0  0  0  0
   -2.5926   -2.5498    0.0160 C   0  0  0  0  0  0  0  0  0  0  0  0
   -0.4207    0.9461    1.7340 H   0  0  0  0  0  0  0  0  0  0  0  0
   -1.7605    3.1994   -0.7448 H   0  0  0  0  0  0  0  0  0  0  0  0
    0.5968    0.2519   -1.0485 H   0  0  0  0  0  0  0  0  0  0  0  0
    1.1477    1.5900   -0.0370 H   0  0  0  0  0  0  0  0  0  0  0  0
    1.9038   -0.0349    1.7199 H   0  0  0  0  0  0  0  0  0  0  0  0
    1.4020   -1.3873    0.6964 H   0  0  0  0  0  0  0  0  0  0  0  0
    4.4490    0.7758   -0.6200 H   0  0  0  0  0  0  0  0  0  0  0  0
   -1.6485   -0.9356    1.7200 H   0  0  0  0  0  0  0  0  0  0  0  0
   -3.6211   -2.1940    0.1420 H   0  0  0  0  0  0  0  0  0  0  0  0
   -2.2959   -3.0872    0.9218 H   0  0  0  0  0  0  0  0  0  0  0  0
   -2.5651   -3.2260   -0.8395 H   0  0  0  0  0  0  0  0  0  0  0  0
  1 10  1  0  0  0  0
  1 14  1  1  0  0  0
  2  3  2  0  0  0  0
  2  1  1  0  0  0  0
  4  2  1  0  0  0  0
  5  6  1  0  0  0  0
  5  1  1  0  0  0  0
  6 19  1  0  0  0  0
  6 18  1  0  0  0  0
  7  6  1  0  0  0  0
  8  7  2  0  0  0  0
  9  7  1  0  0  0  0
 10 21  1  0  0  0  0
 11 13  1  0  0  0  0
 11 10  1  0  0  0  0
 12 11  2  0  0  0  0
 13 22  1  0  0  0  0
 13 23  1  0  0  0  0
 15  4  1  0  0  0  0
 16  5  1  0  0  0  0
 17  5  1  0  0  0  0
 20  9  1  0  0  0  0
 24 13  1  0  0  0  0
M  END
