omegapdb_2byh_00.log
 OpenBabel09261812563D

 40 42  0  0  0  0  0  0  0  0999 V2000
    7.7424   -0.4865    1.0708 O   0  0  0  0  0  0  0  0  0  0  0  0
    6.8823   -1.1012    0.4699 C   0  0  0  0  0  0  0  0  0  0  0  0
    7.1787   -2.4495   -0.1515 C   0  0  0  0  0  0  0  0  0  0  0  0
    5.5028   -0.5352    0.3294 C   0  0  0  0  0  0  0  0  0  0  0  0
    4.4745   -1.1918   -0.3458 C   0  0  0  0  0  0  0  0  0  0  0  0
    3.2037   -0.6381   -0.4535 C   0  0  0  0  0  0  0  0  0  0  0  0
    2.9535    0.6072    0.1279 C   0  0  0  0  0  0  0  0  0  0  0  0
    3.9805    1.2758    0.8075 C   0  0  0  0  0  0  0  0  0  0  0  0
    5.2372    0.7097    0.9066 C   0  0  0  0  0  0  0  0  0  0  0  0
    1.7044    1.2575    0.0713 N   0  0  0  0  0  0  0  0  0  0  0  0
    0.5377    0.8321   -0.4963 C   0  0  0  0  0  0  0  0  0  0  0  0
    0.4152   -0.2733   -1.0260 O   0  0  0  0  0  0  0  0  0  0  0  0
   -0.5649    1.8045   -0.4298 C   0  0  0  0  0  0  0  0  0  0  0  0
   -0.4801    3.2190   -0.3891 C   0  0  0  0  0  0  0  0  0  0  0  0
   -1.6704    3.7811   -0.3115 N   0  0  0  0  0  0  0  0  0  0  0  0
   -2.5177    2.7430   -0.2912 N   0  0  0  0  0  0  0  0  0  0  0  0
   -1.9295    1.5271   -0.3680 C   0  0  0  0  0  0  0  0  0  0  0  0
   -2.7720    0.3177   -0.2956 C   0  0  0  0  0  0  0  0  0  0  0  0
   -3.7312    0.2502    0.7199 C   0  0  0  0  0  0  0  0  0  0  0  0
   -4.6576   -0.7746    0.7663 C   0  0  0  0  0  0  0  0  0  0  0  0
   -5.8399   -0.8430    2.0475 Cl  0  0  0  0  0  0  0  0  0  0  0  0
   -4.6602   -1.7713   -0.2197 C   0  0  0  0  0  0  0  0  0  0  0  0
   -5.5426   -2.7898   -0.2326 O   0  0  0  0  0  0  0  0  0  0  0  0
   -3.7014   -1.7215   -1.2236 C   0  0  0  0  0  0  0  0  0  0  0  0
   -2.7528   -0.7025   -1.2728 C   0  0  0  0  0  0  0  0  0  0  0  0
   -1.8862   -0.7158   -2.2995 O   0  0  0  0  0  0  0  0  0  0  0  0
    6.5258   -3.2239    0.2661 H   0  0  0  0  0  0  0  0  0  0  0  0
    8.2202   -2.7045    0.0492 H   0  0  0  0  0  0  0  0  0  0  0  0
    7.0119   -2.4244   -1.2341 H   0  0  0  0  0  0  0  0  0  0  0  0
    4.6514   -2.1616   -0.8037 H   0  0  0  0  0  0  0  0  0  0  0  0
    2.4125   -1.1610   -0.9726 H   0  0  0  0  0  0  0  0  0  0  0  0
    3.7864    2.2468    1.2600 H   0  0  0  0  0  0  0  0  0  0  0  0
    6.0406    1.2181    1.4314 H   0  0  0  0  0  0  0  0  0  0  0  0
    1.6541    2.1328    0.5727 H   0  0  0  0  0  0  0  0  0  0  0  0
    0.4034    3.8444   -0.4491 H   0  0  0  0  0  0  0  0  0  0  0  0
   -3.5123    2.9171   -0.2741 H   0  0  0  0  0  0  0  0  0  0  0  0
   -3.7506    1.0106    1.4966 H   0  0  0  0  0  0  0  0  0  0  0  0
   -6.1368   -2.7067    0.5283 H   0  0  0  0  0  0  0  0  0  0  0  0
   -3.6827   -2.4964   -1.9820 H   0  0  0  0  0  0  0  0  0  0  0  0
   -0.9955   -0.4524   -1.9695 H   0  0  0  0  0  0  0  0  0  0  0  0
  2  1  2  0  0  0  0
  3 28  1  0  0  0  0
  3 27  1  0  0  0  0
  3  2  1  0  0  0  0
  4  2  1  0  0  0  0
  4  9  2  0  0  0  0
  5  4  1  0  0  0  0
  6  5  2  0  0  0  0
  6  7  1  0  0  0  0
  7  8  2  0  0  0  0
  8  9  1  0  0  0  0
  8 32  1  0  0  0  0
  9 33  1  0  0  0  0
 10  7  1  0  0  0  0
 10 34  1  0  0  0  0
 11 13  1  0  0  0  0
 11 10  1  0  0  0  0
 12 11  2  0  0  0  0
 13 14  1  0  0  0  0
 13 17  2  0  0  0  0
 14 15  2  0  0  0  0
 15 16  1  0  0  0  0
 16 36  1  0  0  0  0
 17 18  1  0  0  0  0
 17 16  1  0  0  0  0
 18 19  2  0  0  0  0
 19 20  1  0  0  0  0
 19 37  1  0  0  0  0
 20 21  1  0  0  0  0
 22 20  2  0  0  0  0
 23 22  1  0  0  0  0
 23 38  1  0  0  0  0
 24 22  1  0  0  0  0
 25 24  2  0  0  0  0
 25 18  1  0  0  0  0
 26 40  1  0  0  0  0
 26 25  1  0  0  0  0
 29  3  1  0  0  0  0
 30  5  1  0  0  0  0
 31  6  1  0  0  0  0
 35 14  1  0  0  0  0
 39 24  1  0  0  0  0
M  END
