omegapdb_1m5f_17.log
 OpenBabel09261812563D

 25 25  0  0  1  0  0  0  0  0999 V2000
   -2.4206    0.4234    1.4083 O   0  0  0  0  0  0  0  0  0  0  0  0
   -2.1576    0.6683    0.1116 C   0  0  0  0  0  0  0  0  0  0  0  0
   -2.9564    0.4922   -0.7724 O   0  0  0  0  0  0  0  0  0  0  0  0
   -0.7667    1.1787   -0.0649 C   0  0  0  0  0  0  0  0  0  0  0  0
   -0.5692    2.2106   -0.8435 N   0  0  0  0  0  0  0  0  0  0  0  0
    0.7751    2.4503   -0.7890 O   0  0  0  0  0  0  0  0  0  0  0  0
    1.3758    1.5489    0.0114 C   0  0  0  0  0  0  0  0  0  0  0  0
    0.4434    0.6960    0.5212 C   0  0  0  0  0  0  0  0  0  0  0  0
    0.6317   -0.5033    1.4038 C   0  0  0  0  0  0  0  0  0  0  0  0
    1.0256   -1.7724    0.6213 C   0  0  2  0  0  0  0  0  0  0  0  0
    2.3705   -1.6550    0.0840 N   0  0  0  0  0  0  0  0  0  0  0  0
    0.0037   -2.0811   -0.4717 C   0  0  0  0  0  0  0  0  0  0  0  0
    0.2767   -2.2603   -1.6327 O   0  0  0  0  0  0  0  0  0  0  0  0
   -1.2619   -2.1165   -0.0069 O   0  0  0  0  0  0  0  0  0  0  0  0
    2.8483    1.6829    0.1851 C   0  0  0  0  0  0  0  0  0  0  0  0
   -3.3240    0.0660    1.4379 H   0  0  0  0  0  0  0  0  0  0  0  0
    1.4279   -0.3176    2.1309 H   0  0  0  0  0  0  0  0  0  0  0  0
   -0.2919   -0.6867    1.9582 H   0  0  0  0  0  0  0  0  0  0  0  0
    1.0071   -2.6094    1.3306 H   0  0  0  0  0  0  0  0  0  0  0  0
    2.6832   -2.5685   -0.2340 H   0  0  0  0  0  0  0  0  0  0  0  0
    2.3239   -1.0940   -0.7649 H   0  0  0  0  0  0  0  0  0  0  0  0
   -1.8354   -2.2534   -0.7812 H   0  0  0  0  0  0  0  0  0  0  0  0
    3.0873    2.5562    0.8011 H   0  0  0  0  0  0  0  0  0  0  0  0
    3.3363    1.8135   -0.7855 H   0  0  0  0  0  0  0  0  0  0  0  0
    3.2482    0.7836    0.6597 H   0  0  0  0  0  0  0  0  0  0  0  0
  1 16  1  0  0  0  0
  2  1  1  0  0  0  0
  3  2  2  0  0  0  0
  4  2  1  0  0  0  0
  4  8  1  0  0  0  0
  5  6  1  0  0  0  0
  5  4  2  0  0  0  0
  6  7  1  0  0  0  0
  7 15  1  0  0  0  0
  7  8  2  0  0  0  0
  8  9  1  0  0  0  0
  9 18  1  0  0  0  0
  9 17  1  0  0  0  0
 10 19  1  1  0  0  0
 10  9  1  0  0  0  0
 11 10  1  0  0  0  0
 12 14  1  0  0  0  0
 12 10  1  0  0  0  0
 13 12  2  0  0  0  0
 15 25  1  0  0  0  0
 15 23  1  0  0  0  0
 20 11  1  0  0  0  0
 21 11  1  0  0  0  0
 22 14  1  0  0  0  0
 24 15  1  0  0  0  0
M  END
