omegapdb_2f7p_01.log
 OpenBabel09261812563D

 34 35  0  0  1  0  0  0  0  0999 V2000
   -1.2212   -0.5844    0.8189 C   0  0  1  0  0  0  0  0  0  0  0  0
    0.1470   -0.1297    0.5738 N   0  0  0  0  0  0  0  0  0  0  0  0
    1.1429   -1.2004    0.5592 C   0  0  0  0  0  0  0  0  0  0  0  0
    2.5056   -0.6579    0.1978 C   0  0  0  0  0  0  0  0  0  0  0  0
    3.5587   -0.6920    1.1083 C   0  0  0  0  0  0  0  0  0  0  0  0
    4.8076   -0.1751    0.7686 C   0  0  0  0  0  0  0  0  0  0  0  0
    5.0103    0.3834   -0.4878 C   0  0  0  0  0  0  0  0  0  0  0  0
    3.9613    0.4227   -1.4053 C   0  0  0  0  0  0  0  0  0  0  0  0
    2.7184   -0.0948   -1.0637 C   0  0  0  0  0  0  0  0  0  0  0  0
   -2.0702    0.6374    1.2642 C   0  0  1  0  0  0  0  0  0  0  0  0
   -1.3329    1.5565    2.0252 O   0  0  0  0  0  0  0  0  0  0  0  0
   -2.6079    1.2853   -0.0606 C   0  0  1  0  0  0  0  0  0  0  0  0
   -2.1200    2.5980   -0.2091 O   0  0  0  0  0  0  0  0  0  0  0  0
   -2.1073    0.3681   -1.2113 C   0  0  1  0  0  0  0  0  0  0  0  0
   -0.9041    0.9017   -1.7398 O   0  0  0  0  0  0  0  0  0  0  0  0
   -1.8603   -0.9861   -0.5257 C   0  0  2  0  0  0  0  0  0  0  0  0
   -3.3531   -2.0149   -0.3651 S   0  0  0  0  0  0  0  0  0  0  0  0
   -1.2597   -1.4015    1.5551 H   0  0  0  0  0  0  0  0  0  0  0  0
    0.3721    0.5541    1.2956 H   0  0  0  0  0  0  0  0  0  0  0  0
    1.1874   -1.7265    1.5270 H   0  0  0  0  0  0  0  0  0  0  0  0
    0.8329   -1.9432   -0.1872 H   0  0  0  0  0  0  0  0  0  0  0  0
    3.4021   -1.1274    2.0936 H   0  0  0  0  0  0  0  0  0  0  0  0
    5.6203   -0.2078    1.4898 H   0  0  0  0  0  0  0  0  0  0  0  0
    5.9829    0.7890   -0.7543 H   0  0  0  0  0  0  0  0  0  0  0  0
    4.1146    0.8575   -2.3897 H   0  0  0  0  0  0  0  0  0  0  0  0
    1.8994   -0.0631   -1.7810 H   0  0  0  0  0  0  0  0  0  0  0  0
   -2.9116    0.2736    1.8684 H   0  0  0  0  0  0  0  0  0  0  0  0
   -1.3550    2.3793    1.4985 H   0  0  0  0  0  0  0  0  0  0  0  0
   -3.7021    1.3312   -0.0411 H   0  0  0  0  0  0  0  0  0  0  0  0
   -1.4370    2.5229   -0.9054 H   0  0  0  0  0  0  0  0  0  0  0  0
   -2.8202    0.3014   -2.0364 H   0  0  0  0  0  0  0  0  0  0  0  0
   -0.2199    0.6923   -1.0576 H   0  0  0  0  0  0  0  0  0  0  0  0
   -1.1855   -1.5967   -1.1344 H   0  0  0  0  0  0  0  0  0  0  0  0
   -4.0722   -1.1765    0.3978 H   0  0  0  0  0  0  0  0  0  0  0  0
  1 16  1  6  0  0  0
  1 10  1  0  0  0  0
  1 18  1  0  0  0  0
  2  1  1  0  0  0  0
  2 19  1  0  0  0  0
  3  2  1  0  0  0  0
  3 20  1  0  0  0  0
  4  3  1  0  0  0  0
  4  5  2  0  0  0  0
  5 22  1  0  0  0  0
  6  5  1  0  0  0  0
  6 23  1  0  0  0  0
  7  6  2  0  0  0  0
  8  9  2  0  0  0  0
  8  7  1  0  0  0  0
  9  4  1  0  0  0  0
 10 12  1  6  0  0  0
 10 27  1  0  0  0  0
 10 11  1  0  0  0  0
 12 14  1  6  0  0  0
 12 29  1  0  0  0  0
 13 12  1  0  0  0  0
 14 16  1  1  0  0  0
 15 14  1  0  0  0  0
 15 32  1  0  0  0  0
 16 33  1  6  0  0  0
 16 17  1  0  0  0  0
 17 34  1  0  0  0  0
 21  3  1  0  0  0  0
 24  7  1  0  0  0  0
 25  8  1  0  0  0  0
 26  9  1  0  0  0  0
 28 11  1  0  0  0  0
 30 13  1  0  0  0  0
 31 14  1  0  0  0  0
M  END
