omegapdb_2f7p_03.log
 OpenBabel09261812563D

 34 35  0  0  1  0  0  0  0  0999 V2000
   -0.9641    0.1933   -0.6702 C   0  0  1  0  0  0  0  0  0  0  0  0
    0.3813    0.2324   -0.1201 N   0  0  0  0  0  0  0  0  0  0  0  0
    1.4380    0.1619   -1.1316 C   0  0  0  0  0  0  0  0  0  0  0  0
    2.7963    0.0634   -0.4811 C   0  0  0  0  0  0  0  0  0  0  0  0
    3.7003    1.1213   -0.5371 C   0  0  0  0  0  0  0  0  0  0  0  0
    4.9420    1.0258    0.0885 C   0  0  0  0  0  0  0  0  0  0  0  0
    5.2862   -0.1314    0.7772 C   0  0  0  0  0  0  0  0  0  0  0  0
    4.3868   -1.1950    0.8386 C   0  0  0  0  0  0  0  0  0  0  0  0
    3.1507   -1.0961    0.2134 C   0  0  0  0  0  0  0  0  0  0  0  0
   -1.4143   -1.2926   -0.8660 C   0  0  1  0  0  0  0  0  0  0  0  0
   -0.6896   -2.1288    0.0112 O   0  0  0  0  0  0  0  0  0  0  0  0
   -2.9316   -1.3231   -0.4934 C   0  0  1  0  0  0  0  0  0  0  0  0
   -3.1358   -2.0215    0.7153 O   0  0  0  0  0  0  0  0  0  0  0  0
   -3.3177    0.1512   -0.2478 C   0  0  1  0  0  0  0  0  0  0  0  0
   -4.3994    0.2889    0.6278 O   0  0  0  0  0  0  0  0  0  0  0  0
   -2.0135    0.7568    0.2805 C   0  0  2  0  0  0  0  0  0  0  0  0
   -1.9909    2.5669    0.3542 S   0  0  0  0  0  0  0  0  0  0  0  0
   -1.0344    0.7225   -1.6352 H   0  0  0  0  0  0  0  0  0  0  0  0
    0.5115    1.0519    0.4674 H   0  0  0  0  0  0  0  0  0  0  0  0
    1.2507   -0.7359   -1.7348 H   0  0  0  0  0  0  0  0  0  0  0  0
    1.4044    1.0234   -1.8182 H   0  0  0  0  0  0  0  0  0  0  0  0
    3.4331    2.0287   -1.0760 H   0  0  0  0  0  0  0  0  0  0  0  0
    5.6397    1.8577    0.0365 H   0  0  0  0  0  0  0  0  0  0  0  0
    6.2545   -0.2086    1.2648 H   0  0  0  0  0  0  0  0  0  0  0  0
    4.6531   -2.1037    1.3724 H   0  0  0  0  0  0  0  0  0  0  0  0
    2.4480   -1.9269    0.2545 H   0  0  0  0  0  0  0  0  0  0  0  0
   -1.2551   -1.6281   -1.8973 H   0  0  0  0  0  0  0  0  0  0  0  0
   -0.0197   -1.5268    0.4100 H   0  0  0  0  0  0  0  0  0  0  0  0
   -3.5435   -1.7788   -1.2809 H   0  0  0  0  0  0  0  0  0  0  0  0
   -2.2635   -2.3970    0.9414 H   0  0  0  0  0  0  0  0  0  0  0  0
   -3.5839    0.6455   -1.1909 H   0  0  0  0  0  0  0  0  0  0  0  0
   -4.3131   -0.4618    1.2407 H   0  0  0  0  0  0  0  0  0  0  0  0
   -1.8330    0.3493    1.2835 H   0  0  0  0  0  0  0  0  0  0  0  0
   -3.1181    2.6694    1.0750 H   0  0  0  0  0  0  0  0  0  0  0  0
  1 10  1  6  0  0  0
  1  2  1  0  0  0  0
  2 19  1  0  0  0  0
  3  4  1  0  0  0  0
  3  2  1  0  0  0  0
  4  9  1  0  0  0  0
  5  4  2  0  0  0  0
  5  6  1  0  0  0  0
  6  7  2  0  0  0  0
  7  8  1  0  0  0  0
  7 24  1  0  0  0  0
  8 25  1  0  0  0  0
  9 26  1  0  0  0  0
  9  8  2  0  0  0  0
 10 12  1  1  0  0  0
 10 11  1  0  0  0  0
 11 28  1  0  0  0  0
 12 14  1  1  0  0  0
 12 13  1  0  0  0  0
 13 30  1  0  0  0  0
 14 16  1  1  0  0  0
 14 15  1  0  0  0  0
 15 32  1  0  0  0  0
 16  1  1  6  0  0  0
 16 17  1  0  0  0  0
 16 33  1  0  0  0  0
 17 34  1  0  0  0  0
 18  1  1  0  0  0  0
 20  3  1  0  0  0  0
 21  3  1  0  0  0  0
 22  5  1  0  0  0  0
 23  6  1  0  0  0  0
 27 10  1  0  0  0  0
 29 12  1  0  0  0  0
 31 14  1  0  0  0  0
M  END
