omegapdb_2byh_08.log
 OpenBabel09261812563D

 40 42  0  0  0  0  0  0  0  0999 V2000
    5.9783    1.6564   -0.7370 O   0  0  0  0  0  0  0  0  0  0  0  0
    5.7546    0.5173   -0.3719 C   0  0  0  0  0  0  0  0  0  0  0  0
    6.8875   -0.4000    0.0403 C   0  0  0  0  0  0  0  0  0  0  0  0
    4.3554   -0.0068   -0.3204 C   0  0  0  0  0  0  0  0  0  0  0  0
    3.3130    0.8494   -0.6886 C   0  0  0  0  0  0  0  0  0  0  0  0
    2.0019    0.4146   -0.6581 C   0  0  0  0  0  0  0  0  0  0  0  0
    1.6979   -0.8963   -0.2623 C   0  0  0  0  0  0  0  0  0  0  0  0
    2.7296   -1.7631    0.1101 C   0  0  0  0  0  0  0  0  0  0  0  0
    4.0421   -1.3069    0.0782 C   0  0  0  0  0  0  0  0  0  0  0  0
    0.3426   -1.2622   -0.2665 N   0  0  0  0  0  0  0  0  0  0  0  0
   -0.2463   -2.3798    0.2819 C   0  0  0  0  0  0  0  0  0  0  0  0
    0.3822   -3.3135    0.7520 O   0  0  0  0  0  0  0  0  0  0  0  0
   -1.7292   -2.4081    0.2339 C   0  0  0  0  0  0  0  0  0  0  0  0
   -2.4545   -3.6191    0.3117 C   0  0  0  0  0  0  0  0  0  0  0  0
   -3.7549   -3.4277    0.1925 N   0  0  0  0  0  0  0  0  0  0  0  0
   -3.8805   -2.1002    0.0609 N   0  0  0  0  0  0  0  0  0  0  0  0
   -2.7076   -1.4267    0.0766 C   0  0  0  0  0  0  0  0  0  0  0  0
   -2.6540    0.0460   -0.0020 C   0  0  0  0  0  0  0  0  0  0  0  0
   -1.7485    0.7701    0.7813 C   0  0  0  0  0  0  0  0  0  0  0  0
   -1.6421    2.1484    0.6987 C   0  0  0  0  0  0  0  0  0  0  0  0
   -0.4841    2.9956    1.6645 Cl  0  0  0  0  0  0  0  0  0  0  0  0
   -2.4796    2.8605   -0.1680 C   0  0  0  0  0  0  0  0  0  0  0  0
   -2.3502    4.2012   -0.2228 O   0  0  0  0  0  0  0  0  0  0  0  0
   -3.4144    2.1608   -0.9291 C   0  0  0  0  0  0  0  0  0  0  0  0
   -3.5051    0.7743   -0.8471 C   0  0  0  0  0  0  0  0  0  0  0  0
   -4.4252    0.0794   -1.5708 O   0  0  0  0  0  0  0  0  0  0  0  0
    7.8290    0.1430   -0.0543 H   0  0  0  0  0  0  0  0  0  0  0  0
    6.9166   -1.2929   -0.5941 H   0  0  0  0  0  0  0  0  0  0  0  0
    6.7611   -0.7349    1.0758 H   0  0  0  0  0  0  0  0  0  0  0  0
    3.5586    1.8631   -0.9910 H   0  0  0  0  0  0  0  0  0  0  0  0
    1.1959    1.0950   -0.9303 H   0  0  0  0  0  0  0  0  0  0  0  0
    2.4946   -2.7721    0.4204 H   0  0  0  0  0  0  0  0  0  0  0  0
    4.8315   -1.9947    0.3708 H   0  0  0  0  0  0  0  0  0  0  0  0
   -0.2811   -0.5841   -0.6796 H   0  0  0  0  0  0  0  0  0  0  0  0
   -2.0442   -4.6120    0.4373 H   0  0  0  0  0  0  0  0  0  0  0  0
   -4.7918   -1.6986   -0.0985 H   0  0  0  0  0  0  0  0  0  0  0  0
   -1.1023    0.2408    1.4754 H   0  0  0  0  0  0  0  0  0  0  0  0
   -2.9834    4.5645   -0.8552 H   0  0  0  0  0  0  0  0  0  0  0  0
   -4.0810    2.7079   -1.5947 H   0  0  0  0  0  0  0  0  0  0  0  0
   -4.9082    0.6828   -2.1498 H   0  0  0  0  0  0  0  0  0  0  0  0
  1  2  2  0  0  0  0
  2  4  1  0  0  0  0
  2  3  1  0  0  0  0
  3 29  1  0  0  0  0
  4  9  2  0  0  0  0
  5  6  2  0  0  0  0
  5  4  1  0  0  0  0
  6  7  1  0  0  0  0
  7  8  2  0  0  0  0
  8 32  1  0  0  0  0
  9  8  1  0  0  0  0
  9 33  1  0  0  0  0
 10  7  1  0  0  0  0
 10 11  1  0  0  0  0
 11 12  2  0  0  0  0
 13 11  1  0  0  0  0
 13 14  1  0  0  0  0
 14 35  1  0  0  0  0
 15 14  2  0  0  0  0
 16 17  1  0  0  0  0
 16 15  1  0  0  0  0
 17 13  2  0  0  0  0
 18 17  1  0  0  0  0
 18 19  2  0  0  0  0
 19 37  1  0  0  0  0
 20 19  1  0  0  0  0
 20 21  1  0  0  0  0
 22 20  2  0  0  0  0
 23 22  1  0  0  0  0
 24 25  2  0  0  0  0
 24 22  1  0  0  0  0
 25 18  1  0  0  0  0
 26 25  1  0  0  0  0
 27  3  1  0  0  0  0
 28  3  1  0  0  0  0
 30  5  1  0  0  0  0
 31  6  1  0  0  0  0
 34 10  1  0  0  0  0
 36 16  1  0  0  0  0
 38 23  1  0  0  0  0
 39 24  1  0  0  0  0
 40 26  1  0  0  0  0
M  END
