omegapdb_1m5f_22.log
 OpenBabel09261812563D

 25 25  0  0  1  0  0  0  0  0999 V2000
    2.4653   -1.1257    1.1280 O   0  0  0  0  0  0  0  0  0  0  0  0
    2.4434   -0.4985   -0.0705 C   0  0  0  0  0  0  0  0  0  0  0  0
    3.2168   -0.7566   -0.9542 O   0  0  0  0  0  0  0  0  0  0  0  0
    1.4131    0.5763   -0.1087 C   0  0  0  0  0  0  0  0  0  0  0  0
    1.6746    1.6448   -0.8160 N   0  0  0  0  0  0  0  0  0  0  0  0
    0.5996    2.4698   -0.6411 O   0  0  0  0  0  0  0  0  0  0  0  0
   -0.3049    1.8835    0.1679 C   0  0  0  0  0  0  0  0  0  0  0  0
    0.1511    0.6618    0.5567 C   0  0  0  0  0  0  0  0  0  0  0  0
   -0.5317   -0.3715    1.3979 C   0  0  0  0  0  0  0  0  0  0  0  0
   -1.1033   -1.5307    0.5576 C   0  0  2  0  0  0  0  0  0  0  0  0
   -0.0584   -2.1849   -0.2074 N   0  0  0  0  0  0  0  0  0  0  0  0
   -2.1791   -1.0668   -0.4098 C   0  0  0  0  0  0  0  0  0  0  0  0
   -2.2965   -1.4521   -1.5471 O   0  0  0  0  0  0  0  0  0  0  0  0
   -3.0503   -0.2077    0.1553 O   0  0  0  0  0  0  0  0  0  0  0  0
   -1.5344    2.6713    0.4559 C   0  0  0  0  0  0  0  0  0  0  0  0
    3.1852   -1.7748    1.0618 H   0  0  0  0  0  0  0  0  0  0  0  0
    0.1830   -0.7964    2.1093 H   0  0  0  0  0  0  0  0  0  0  0  0
   -1.3389    0.0849    1.9790 H   0  0  0  0  0  0  0  0  0  0  0  0
   -1.6293   -2.2090    1.2537 H   0  0  0  0  0  0  0  0  0  0  0  0
   -0.4532   -2.6096   -1.0409 H   0  0  0  0  0  0  0  0  0  0  0  0
    0.3973   -2.9018    0.3448 H   0  0  0  0  0  0  0  0  0  0  0  0
   -3.7130   -0.0122   -0.5281 H   0  0  0  0  0  0  0  0  0  0  0  0
   -1.2812    3.6063    0.9657 H   0  0  0  0  0  0  0  0  0  0  0  0
   -2.0529    2.9258   -0.4740 H   0  0  0  0  0  0  0  0  0  0  0  0
   -2.2142    2.0931    1.0843 H   0  0  0  0  0  0  0  0  0  0  0  0
  2  1  1  0  0  0  0
  3  2  2  0  0  0  0
  4  2  1  0  0  0  0
  4  8  1  0  0  0  0
  5  6  1  0  0  0  0
  5  4  2  0  0  0  0
  6  7  1  0  0  0  0
  7 15  1  0  0  0  0
  7  8  2  0  0  0  0
  8  9  1  0  0  0  0
  9 18  1  0  0  0  0
  9 17  1  0  0  0  0
 10 19  1  1  0  0  0
 10  9  1  0  0  0  0
 11 21  1  0  0  0  0
 11 10  1  0  0  0  0
 12 14  1  0  0  0  0
 12 10  1  0  0  0  0
 13 12  2  0  0  0  0
 15 23  1  0  0  0  0
 15 25  1  0  0  0  0
 16  1  1  0  0  0  0
 20 11  1  0  0  0  0
 22 14  1  0  0  0  0
 24 15  1  0  0  0  0
M  END
