omegapdb_2f7p_15.log
 OpenBabel09261812563D

 34 35  0  0  1  0  0  0  0  0999 V2000
   -0.9358   -0.0682   -0.6977 C   0  0  1  0  0  0  0  0  0  0  0  0
    0.4285   -0.4033   -0.3907 N   0  0  0  0  0  0  0  0  0  0  0  0
    1.3594    0.7078   -0.3195 C   0  0  0  0  0  0  0  0  0  0  0  0
    2.7813    0.2342   -0.1046 C   0  0  0  0  0  0  0  0  0  0  0  0
    3.2326   -0.9621   -0.6646 C   0  0  0  0  0  0  0  0  0  0  0  0
    4.5501   -1.3722   -0.4851 C   0  0  0  0  0  0  0  0  0  0  0  0
    5.4344   -0.5908    0.2536 C   0  0  0  0  0  0  0  0  0  0  0  0
    4.9916    0.6025    0.8160 C   0  0  0  0  0  0  0  0  0  0  0  0
    3.6720    1.0074    0.6402 C   0  0  0  0  0  0  0  0  0  0  0  0
   -1.8368   -1.3141   -0.6439 C   0  0  1  0  0  0  0  0  0  0  0  0
   -1.5610   -2.1530    0.4679 O   0  0  0  0  0  0  0  0  0  0  0  0
   -3.2435   -0.7127   -0.5317 C   0  0  1  0  0  0  0  0  0  0  0  0
   -4.2533   -1.6359   -0.2571 O   0  0  0  0  0  0  0  0  0  0  0  0
   -3.0591    0.3835    0.5349 C   0  0  1  0  0  0  0  0  0  0  0  0
   -3.0445   -0.2904    1.7960 O   0  0  0  0  0  0  0  0  0  0  0  0
   -1.6664    0.9833    0.2180 C   0  0  2  0  0  0  0  0  0  0  0  0
   -1.7088    2.6727   -0.4553 S   0  0  0  0  0  0  0  0  0  0  0  0
   -0.9626    0.3175   -1.7275 H   0  0  0  0  0  0  0  0  0  0  0  0
    0.4682   -0.9904    0.4371 H   0  0  0  0  0  0  0  0  0  0  0  0
    1.2912    1.2546   -1.2713 H   0  0  0  0  0  0  0  0  0  0  0  0
    1.1092    1.4469    0.4634 H   0  0  0  0  0  0  0  0  0  0  0  0
    2.5351   -1.5695   -1.2353 H   0  0  0  0  0  0  0  0  0  0  0  0
    4.8881   -2.3073   -0.9252 H   0  0  0  0  0  0  0  0  0  0  0  0
    6.4633   -0.9126    0.3939 H   0  0  0  0  0  0  0  0  0  0  0  0
    5.6723    1.2169    1.4002 H   0  0  0  0  0  0  0  0  0  0  0  0
    3.3272    1.9376    1.0893 H   0  0  0  0  0  0  0  0  0  0  0  0
   -1.7113   -1.9405   -1.5300 H   0  0  0  0  0  0  0  0  0  0  0  0
   -1.8196   -1.6647    1.2694 H   0  0  0  0  0  0  0  0  0  0  0  0
   -3.4991   -0.2248   -1.4811 H   0  0  0  0  0  0  0  0  0  0  0  0
   -3.8977   -2.2258    0.4236 H   0  0  0  0  0  0  0  0  0  0  0  0
   -3.8597    1.1310    0.5217 H   0  0  0  0  0  0  0  0  0  0  0  0
   -3.0412    0.3720    2.4981 H   0  0  0  0  0  0  0  0  0  0  0  0
   -1.1159    1.0927    1.1599 H   0  0  0  0  0  0  0  0  0  0  0  0
   -2.3169    2.3684   -1.6140 H   0  0  0  0  0  0  0  0  0  0  0  0
  1 10  1  1  0  0  0
  1  2  1  0  0  0  0
  2  3  1  0  0  0  0
  2 19  1  0  0  0  0
  3  4  1  0  0  0  0
  3 21  1  0  0  0  0
  4  9  2  0  0  0  0
  5  6  2  0  0  0  0
  5  4  1  0  0  0  0
  6  7  1  0  0  0  0
  7 24  1  0  0  0  0
  7  8  2  0  0  0  0
  8 25  1  0  0  0  0
  9  8  1  0  0  0  0
  9 26  1  0  0  0  0
 10 12  1  1  0  0  0
 10 11  1  0  0  0  0
 11 28  1  0  0  0  0
 12 13  1  0  0  0  0
 12 14  1  1  0  0  0
 13 30  1  0  0  0  0
 14 16  1  6  0  0  0
 14 15  1  0  0  0  0
 15 32  1  0  0  0  0
 16  1  1  6  0  0  0
 16 33  1  0  0  0  0
 17 16  1  0  0  0  0
 18  1  1  0  0  0  0
 20  3  1  0  0  0  0
 22  5  1  0  0  0  0
 23  6  1  0  0  0  0
 27 10  1  0  0  0  0
 29 12  1  0  0  0  0
 31 14  1  0  0  0  0
 34 17  1  0  0  0  0
M  END
