omegapdb_2byh_18.log
 OpenBabel09261812563D

 40 42  0  0  0  0  0  0  0  0999 V2000
   -6.0045    0.0522   -2.5635 O   0  0  0  0  0  0  0  0  0  0  0  0
   -6.1155   -0.2045   -1.3802 C   0  0  0  0  0  0  0  0  0  0  0  0
   -7.4812   -0.3562   -0.7431 C   0  0  0  0  0  0  0  0  0  0  0  0
   -4.9012   -0.3772   -0.5211 C   0  0  0  0  0  0  0  0  0  0  0  0
   -4.9707   -0.6774    0.8403 C   0  0  0  0  0  0  0  0  0  0  0  0
   -3.8122   -0.8219    1.5913 C   0  0  0  0  0  0  0  0  0  0  0  0
   -2.5590   -0.6841    0.9892 C   0  0  0  0  0  0  0  0  0  0  0  0
   -2.4819   -0.4035   -0.3800 C   0  0  0  0  0  0  0  0  0  0  0  0
   -3.6436   -0.2408   -1.1157 C   0  0  0  0  0  0  0  0  0  0  0  0
   -1.4147   -0.8941    1.7853 N   0  0  0  0  0  0  0  0  0  0  0  0
   -0.1177   -0.4248    1.6547 C   0  0  0  0  0  0  0  0  0  0  0  0
    0.7897   -1.0451    2.1881 O   0  0  0  0  0  0  0  0  0  0  0  0
    0.0808    0.8661    0.9657 C   0  0  0  0  0  0  0  0  0  0  0  0
   -0.8234    1.9558    0.9611 C   0  0  0  0  0  0  0  0  0  0  0  0
   -0.3019    3.0304    0.4034 N   0  0  0  0  0  0  0  0  0  0  0  0
    0.9273    2.6443    0.0353 N   0  0  0  0  0  0  0  0  0  0  0  0
    1.2359    1.3663    0.3536 C   0  0  0  0  0  0  0  0  0  0  0  0
    2.5364    0.7679   -0.0055 C   0  0  0  0  0  0  0  0  0  0  0  0
    2.6940   -0.6219   -0.0622 C   0  0  0  0  0  0  0  0  0  0  0  0
    3.8928   -1.2163   -0.4092 C   0  0  0  0  0  0  0  0  0  0  0  0
    4.0281   -2.9420   -0.4674 Cl  0  0  0  0  0  0  0  0  0  0  0  0
    5.0054   -0.4274   -0.7172 C   0  0  0  0  0  0  0  0  0  0  0  0
    6.1612   -1.0412   -1.0484 O   0  0  0  0  0  0  0  0  0  0  0  0
    4.8717    0.9569   -0.6753 C   0  0  0  0  0  0  0  0  0  0  0  0
    3.6589    1.5460   -0.3302 C   0  0  0  0  0  0  0  0  0  0  0  0
    3.5426    2.9082   -0.3102 O   0  0  0  0  0  0  0  0  0  0  0  0
   -8.2423   -0.2081   -1.5104 H   0  0  0  0  0  0  0  0  0  0  0  0
   -7.6215    0.3809    0.0555 H   0  0  0  0  0  0  0  0  0  0  0  0
   -7.5988   -1.3514   -0.3000 H   0  0  0  0  0  0  0  0  0  0  0  0
   -5.9328   -0.7918    1.3327 H   0  0  0  0  0  0  0  0  0  0  0  0
   -3.8714   -1.0350    2.6560 H   0  0  0  0  0  0  0  0  0  0  0  0
   -1.5132   -0.3174   -0.8612 H   0  0  0  0  0  0  0  0  0  0  0  0
   -3.5999   -0.0217   -2.1785 H   0  0  0  0  0  0  0  0  0  0  0  0
   -1.4595   -1.6667    2.4377 H   0  0  0  0  0  0  0  0  0  0  0  0
   -1.8269    1.9891    1.3660 H   0  0  0  0  0  0  0  0  0  0  0  0
    1.5563    3.3082   -0.3900 H   0  0  0  0  0  0  0  0  0  0  0  0
    1.8641   -1.2664    0.1972 H   0  0  0  0  0  0  0  0  0  0  0  0
    6.8393   -0.3767   -1.2244 H   0  0  0  0  0  0  0  0  0  0  0  0
    5.7253    1.5876   -0.9224 H   0  0  0  0  0  0  0  0  0  0  0  0
    4.3988    3.3087   -0.5060 H   0  0  0  0  0  0  0  0  0  0  0  0
  1  2  2  0  0  0  0
  2  3  1  0  0  0  0
  2  4  1  0  0  0  0
  3 29  1  0  0  0  0
  3 28  1  0  0  0  0
  4  5  1  0  0  0  0
  5 30  1  0  0  0  0
  5  6  2  0  0  0  0
  6 31  1  0  0  0  0
  7  6  1  0  0  0  0
  7 10  1  0  0  0  0
  8  7  2  0  0  0  0
  9  4  2  0  0  0  0
  9  8  1  0  0  0  0
 10 34  1  0  0  0  0
 11 10  1  0  0  0  0
 11 12  2  0  0  0  0
 13 11  1  0  0  0  0
 14 13  1  0  0  0  0
 14 35  1  0  0  0  0
 15 14  2  0  0  0  0
 16 17  1  0  0  0  0
 16 15  1  0  0  0  0
 17 13  2  0  0  0  0
 18 17  1  0  0  0  0
 19 18  1  0  0  0  0
 19 37  1  0  0  0  0
 20 19  2  0  0  0  0
 21 20  1  0  0  0  0
 22 24  2  0  0  0  0
 22 20  1  0  0  0  0
 23 22  1  0  0  0  0
 24 25  1  0  0  0  0
 25 26  1  0  0  0  0
 25 18  2  0  0  0  0
 27  3  1  0  0  0  0
 32  8  1  0  0  0  0
 33  9  1  0  0  0  0
 36 16  1  0  0  0  0
 38 23  1  0  0  0  0
 39 24  1  0  0  0  0
 40 26  1  0  0  0  0
M  END
