omegapdb_1v2k_15.log
 OpenBabel09261812563D

 61 65  0  0  0  0  0  0  0  0999 V2000
   -9.7164    1.8605   -0.6992 N   0  0  0  0  0  0  0  0  0  0  0  0
   -9.1539    1.1543   -1.6799 C   0  0  0  0  0  0  0  0  0  0  0  0
   -8.0664    0.3053   -1.5312 C   0  0  0  0  0  0  0  0  0  0  0  0
   -7.4750    0.1505   -0.2629 C   0  0  0  0  0  0  0  0  0  0  0  0
   -8.0641    0.8976    0.7767 C   0  0  0  0  0  0  0  0  0  0  0  0
   -9.1511    1.7096    0.5022 C   0  0  0  0  0  0  0  0  0  0  0  0
   -6.3738   -0.6572   -0.0793 N   0  0  0  0  0  0  0  0  0  0  0  0
   -5.9644   -1.1666    1.2184 C   0  0  0  0  0  0  0  0  0  0  0  0
   -4.4559   -0.9774    1.4277 C   0  0  0  0  0  0  0  0  0  0  0  0
   -3.6818   -1.2076    0.1037 C   0  0  0  0  0  0  0  0  0  0  0  0
   -4.5138   -2.0922   -0.8257 C   0  0  0  0  0  0  0  0  0  0  0  0
   -5.8072   -1.3726   -1.2173 C   0  0  0  0  0  0  0  0  0  0  0  0
   -2.3392   -1.8665    0.3981 C   0  0  0  0  0  0  0  0  0  0  0  0
   -2.2348   -3.0862    0.4189 O   0  0  0  0  0  0  0  0  0  0  0  0
   -1.2768   -1.0506    0.6767 N   0  0  0  0  0  0  0  0  0  0  0  0
    0.0222   -1.6673    0.9219 C   0  0  0  0  0  0  0  0  0  0  0  0
    1.1218   -0.8771    0.2294 C   0  0  0  0  0  0  0  0  0  0  0  0
    1.1538    0.5021    0.7533 N   0  0  0  0  0  0  0  0  0  0  0  0
   -0.0988    0.9673    1.3640 C   0  0  0  0  0  0  0  0  0  0  0  0
   -1.3225    0.4114    0.6450 C   0  0  0  0  0  0  0  0  0  0  0  0
    1.9551    1.5970   -0.2272 S   0  0  0  0  0  0  0  0  0  0  0  0
    1.6487    1.3567   -1.6327 O   0  0  0  0  0  0  0  0  0  0  0  0
    1.7319    2.9113    0.3555 O   0  0  0  0  0  0  0  0  0  0  0  0
    3.6434    1.1237    0.0407 C   0  0  0  0  0  0  0  0  0  0  0  0
    4.3561    0.5841   -0.9932 C   0  0  0  0  0  0  0  0  0  0  0  0
    5.7139    0.2181   -0.7953 C   0  0  0  0  0  0  0  0  0  0  0  0
    6.3059    0.4234    0.4770 C   0  0  0  0  0  0  0  0  0  0  0  0
    5.5266    0.9954    1.5236 C   0  0  0  0  0  0  0  0  0  0  0  0
    4.2225    1.3425    1.3164 C   0  0  0  0  0  0  0  0  0  0  0  0
    7.6617    0.0569    0.6773 C   0  0  0  0  0  0  0  0  0  0  0  0
    8.3771   -0.4869   -0.3542 C   0  0  0  0  0  0  0  0  0  0  0  0
    7.7995   -0.6964   -1.6292 C   0  0  0  0  0  0  0  0  0  0  0  0
    6.4936   -0.3481   -1.8384 C   0  0  0  0  0  0  0  0  0  0  0  0
   10.0376   -0.9377   -0.1138 Cl  0  0  0  0  0  0  0  0  0  0  0  0
   -9.6059    1.2653   -2.6654 H   0  0  0  0  0  0  0  0  0  0  0  0
   -7.7011   -0.2330   -2.3979 H   0  0  0  0  0  0  0  0  0  0  0  0
   -7.6788    0.8742    1.7900 H   0  0  0  0  0  0  0  0  0  0  0  0
   -9.5979    2.2850    1.3128 H   0  0  0  0  0  0  0  0  0  0  0  0
   -6.5183   -0.6660    2.0113 H   0  0  0  0  0  0  0  0  0  0  0  0
   -6.2205   -2.2340    1.2928 H   0  0  0  0  0  0  0  0  0  0  0  0
   -4.2583    0.0306    1.8110 H   0  0  0  0  0  0  0  0  0  0  0  0
   -4.1181   -1.6902    2.1895 H   0  0  0  0  0  0  0  0  0  0  0  0
   -3.5342   -0.2418   -0.3938 H   0  0  0  0  0  0  0  0  0  0  0  0
   -4.7129   -3.0460   -0.3281 H   0  0  0  0  0  0  0  0  0  0  0  0
   -3.9535   -2.3354   -1.7340 H   0  0  0  0  0  0  0  0  0  0  0  0
   -6.5285   -2.0943   -1.6345 H   0  0  0  0  0  0  0  0  0  0  0  0
   -5.5864   -0.6422   -2.0067 H   0  0  0  0  0  0  0  0  0  0  0  0
   -0.0172   -2.6826    0.5241 H   0  0  0  0  0  0  0  0  0  0  0  0
    0.2225   -1.7439    1.9989 H   0  0  0  0  0  0  0  0  0  0  0  0
    0.9362   -0.8727   -0.8523 H   0  0  0  0  0  0  0  0  0  0  0  0
    2.0927   -1.3520    0.4107 H   0  0  0  0  0  0  0  0  0  0  0  0
   -0.1094    0.6518    2.4135 H   0  0  0  0  0  0  0  0  0  0  0  0
   -0.1106    2.0584    1.3493 H   0  0  0  0  0  0  0  0  0  0  0  0
   -2.2211    0.7756    1.1534 H   0  0  0  0  0  0  0  0  0  0  0  0
   -1.3393    0.7874   -0.3881 H   0  0  0  0  0  0  0  0  0  0  0  0
    3.8837    0.4433   -1.9620 H   0  0  0  0  0  0  0  0  0  0  0  0
    5.9900    1.1568    2.4938 H   0  0  0  0  0  0  0  0  0  0  0  0
    3.6247    1.7878    2.1059 H   0  0  0  0  0  0  0  0  0  0  0  0
    8.1257    0.2105    1.6475 H   0  0  0  0  0  0  0  0  0  0  0  0
    8.4015   -1.1292   -2.4218 H   0  0  0  0  0  0  0  0  0  0  0  0
    6.0370   -0.5017   -2.8131 H   0  0  0  0  0  0  0  0  0  0  0  0
  1  6  2  0  0  0  0
  2  3  2  0  0  0  0
  2  1  1  0  0  0  0
  3  4  1  0  0  0  0
  4  7  1  0  0  0  0
  4  5  2  0  0  0  0
  5 37  1  0  0  0  0
  6  5  1  0  0  0  0
  6 38  1  0  0  0  0
  7  8  1  0  0  0  0
  8 40  1  0  0  0  0
  8  9  1  0  0  0  0
  8 39  1  0  0  0  0
  9 41  1  0  0  0  0
  9 42  1  0  0  0  0
 10 13  1  0  0  0  0
 10  9  1  0  0  0  0
 11 44  1  0  0  0  0
 11 10  1  0  0  0  0
 12 11  1  0  0  0  0
 12  7  1  0  0  0  0
 13 14  2  0  0  0  0
 13 15  1  0  0  0  0
 15 16  1  0  0  0  0
 16 49  1  0  0  0  0
 17 51  1  0  0  0  0
 17 18  1  0  0  0  0
 17 16  1  0  0  0  0
 18 19  1  0  0  0  0
 19 52  1  0  0  0  0
 20 15  1  0  0  0  0
 20 54  1  0  0  0  0
 20 19  1  0  0  0  0
 21 24  1  0  0  0  0
 21 23  2  0  0  0  0
 21 18  1  0  0  0  0
 22 21  2  0  0  0  0
 24 29  2  0  0  0  0
 25 26  2  0  0  0  0
 25 24  1  0  0  0  0
 26 27  1  0  0  0  0
 27 30  1  0  0  0  0
 27 28  2  0  0  0  0
 28 57  1  0  0  0  0
 29 28  1  0  0  0  0
 29 58  1  0  0  0  0
 30 59  1  0  0  0  0
 31 34  1  0  0  0  0
 31 30  2  0  0  0  0
 32 31  1  0  0  0  0
 33 32  2  0  0  0  0
 33 26  1  0  0  0  0
 35  2  1  0  0  0  0
 36  3  1  0  0  0  0
 43 10  1  0  0  0  0
 45 11  1  0  0  0  0
 46 12  1  0  0  0  0
 47 12  1  0  0  0  0
 48 16  1  0  0  0  0
 50 17  1  0  0  0  0
 53 19  1  0  0  0  0
 55 20  1  0  0  0  0
 56 25  1  0  0  0  0
 60 32  1  0  0  0  0
 61 33  1  0  0  0  0
M  END
