omegapdb_1v2k_13.log
 OpenBabel09261812563D

 61 65  0  0  0  0  0  0  0  0999 V2000
  -10.6823   -0.3011   -0.2845 N   0  0  0  0  0  0  0  0  0  0  0  0
  -10.0107   -0.6103    0.8279 C   0  0  0  0  0  0  0  0  0  0  0  0
   -8.6328   -0.7182    0.9243 C   0  0  0  0  0  0  0  0  0  0  0  0
   -7.8419   -0.4956   -0.2201 C   0  0  0  0  0  0  0  0  0  0  0  0
   -8.5429   -0.1696   -1.3976 C   0  0  0  0  0  0  0  0  0  0  0  0
   -9.9264   -0.0884   -1.3637 C   0  0  0  0  0  0  0  0  0  0  0  0
   -6.4731   -0.5900   -0.1877 N   0  0  0  0  0  0  0  0  0  0  0  0
   -5.7796   -1.2277    0.9275 C   0  0  0  0  0  0  0  0  0  0  0  0
   -4.4867   -1.8776    0.4432 C   0  0  0  0  0  0  0  0  0  0  0  0
   -3.5060   -0.8603   -0.1694 C   0  0  0  0  0  0  0  0  0  0  0  0
   -4.2858    0.3342   -0.7676 C   0  0  0  0  0  0  0  0  0  0  0  0
   -5.6618   -0.0818   -1.2813 C   0  0  0  0  0  0  0  0  0  0  0  0
   -2.5504   -0.3321    0.8985 C   0  0  0  0  0  0  0  0  0  0  0  0
   -2.8934   -0.2875    2.0735 O   0  0  0  0  0  0  0  0  0  0  0  0
   -1.3280    0.1320    0.4989 N   0  0  0  0  0  0  0  0  0  0  0  0
   -0.4102    0.6252    1.5245 C   0  0  0  0  0  0  0  0  0  0  0  0
    1.0222    0.2889    1.1382 C   0  0  0  0  0  0  0  0  0  0  0  0
    1.3846    0.8764   -0.1642 N   0  0  0  0  0  0  0  0  0  0  0  0
    0.2530    1.1377   -1.0704 C   0  0  0  0  0  0  0  0  0  0  0  0
   -0.8110    0.0690   -0.8647 C   0  0  0  0  0  0  0  0  0  0  0  0
    2.5261    2.0979   -0.1360 S   0  0  0  0  0  0  0  0  0  0  0  0
    2.3188    2.9680    1.0151 O   0  0  0  0  0  0  0  0  0  0  0  0
    2.5419    2.6406   -1.4849 O   0  0  0  0  0  0  0  0  0  0  0  0
    4.0389    1.2091    0.1471 C   0  0  0  0  0  0  0  0  0  0  0  0
    4.6550    0.6055   -0.9164 C   0  0  0  0  0  0  0  0  0  0  0  0
    5.8664   -0.1015   -0.7192 C   0  0  0  0  0  0  0  0  0  0  0  0
    6.4229   -0.1693    0.5849 C   0  0  0  0  0  0  0  0  0  0  0  0
    5.7582    0.4835    1.6581 C   0  0  0  0  0  0  0  0  0  0  0  0
    4.5909    1.1665    1.4493 C   0  0  0  0  0  0  0  0  0  0  0  0
    7.6378   -0.8781    0.7837 C   0  0  0  0  0  0  0  0  0  0  0  0
    8.2524   -1.4817   -0.2772 C   0  0  0  0  0  0  0  0  0  0  0  0
    7.7096   -1.4199   -1.5848 C   0  0  0  0  0  0  0  0  0  0  0  0
    6.5419   -0.7421   -1.7940 C   0  0  0  0  0  0  0  0  0  0  0  0
    9.7385   -2.3498   -0.0409 Cl  0  0  0  0  0  0  0  0  0  0  0  0
  -10.6174   -0.7780    1.7176 H   0  0  0  0  0  0  0  0  0  0  0  0
   -8.1845   -0.9386    1.8869 H   0  0  0  0  0  0  0  0  0  0  0  0
   -8.0278   -0.0104   -2.3389 H   0  0  0  0  0  0  0  0  0  0  0  0
  -10.4640    0.1587   -2.2792 H   0  0  0  0  0  0  0  0  0  0  0  0
   -6.4295   -2.0057    1.3401 H   0  0  0  0  0  0  0  0  0  0  0  0
   -5.5541   -0.5165    1.7343 H   0  0  0  0  0  0  0  0  0  0  0  0
   -4.7397   -2.6322   -0.3108 H   0  0  0  0  0  0  0  0  0  0  0  0
   -4.0160   -2.3922    1.2849 H   0  0  0  0  0  0  0  0  0  0  0  0
   -2.9444   -1.3597   -0.9673 H   0  0  0  0  0  0  0  0  0  0  0  0
   -3.7256    0.8068   -1.5830 H   0  0  0  0  0  0  0  0  0  0  0  0
   -4.4299    1.0989    0.0053 H   0  0  0  0  0  0  0  0  0  0  0  0
   -6.1548    0.7981   -1.7078 H   0  0  0  0  0  0  0  0  0  0  0  0
   -5.5586   -0.8209   -2.0941 H   0  0  0  0  0  0  0  0  0  0  0  0
   -0.6778    0.1503    2.4704 H   0  0  0  0  0  0  0  0  0  0  0  0
   -0.5161    1.7100    1.6549 H   0  0  0  0  0  0  0  0  0  0  0  0
    1.6972    0.6647    1.9113 H   0  0  0  0  0  0  0  0  0  0  0  0
    1.1535   -0.7981    1.0811 H   0  0  0  0  0  0  0  0  0  0  0  0
   -0.1943    2.1258   -0.8950 H   0  0  0  0  0  0  0  0  0  0  0  0
    0.6140    1.1119   -2.1003 H   0  0  0  0  0  0  0  0  0  0  0  0
   -1.6122    0.2584   -1.5829 H   0  0  0  0  0  0  0  0  0  0  0  0
   -0.3864   -0.9210   -1.0869 H   0  0  0  0  0  0  0  0  0  0  0  0
    4.2234    0.6796   -1.9117 H   0  0  0  0  0  0  0  0  0  0  0  0
    6.1992    0.4431    2.6511 H   0  0  0  0  0  0  0  0  0  0  0  0
    4.0926    1.6958    2.2560 H   0  0  0  0  0  0  0  0  0  0  0  0
    8.0734   -0.9355    1.7772 H   0  0  0  0  0  0  0  0  0  0  0  0
    8.2301   -1.9109   -2.4007 H   0  0  0  0  0  0  0  0  0  0  0  0
    6.1148   -0.6843   -2.7923 H   0  0  0  0  0  0  0  0  0  0  0  0
  1  2  2  0  0  0  0
  2  3  1  0  0  0  0
  2 35  1  0  0  0  0
  3 36  1  0  0  0  0
  4  7  1  0  0  0  0
  4  3  2  0  0  0  0
  5  6  2  0  0  0  0
  5  4  1  0  0  0  0
  6  1  1  0  0  0  0
  7  8  1  0  0  0  0
  8 39  1  0  0  0  0
  8 40  1  0  0  0  0
  9  8  1  0  0  0  0
  9 42  1  0  0  0  0
 10  9  1  0  0  0  0
 10 13  1  0  0  0  0
 11 10  1  0  0  0  0
 11 45  1  0  0  0  0
 12 11  1  0  0  0  0
 12  7  1  0  0  0  0
 13 14  2  0  0  0  0
 15 13  1  0  0  0  0
 15 16  1  0  0  0  0
 16 49  1  0  0  0  0
 16 48  1  0  0  0  0
 17 16  1  0  0  0  0
 17 50  1  0  0  0  0
 18 21  1  0  0  0  0
 18 17  1  0  0  0  0
 19 52  1  0  0  0  0
 19 20  1  0  0  0  0
 19 18  1  0  0  0  0
 20 15  1  0  0  0  0
 21 24  1  0  0  0  0
 21 22  2  0  0  0  0
 23 21  2  0  0  0  0
 24 29  2  0  0  0  0
 25 26  2  0  0  0  0
 25 24  1  0  0  0  0
 26 27  1  0  0  0  0
 27 30  1  0  0  0  0
 27 28  2  0  0  0  0
 28 57  1  0  0  0  0
 29 28  1  0  0  0  0
 29 58  1  0  0  0  0
 30 59  1  0  0  0  0
 31 34  1  0  0  0  0
 31 30  2  0  0  0  0
 32 31  1  0  0  0  0
 33 32  2  0  0  0  0
 33 26  1  0  0  0  0
 37  5  1  0  0  0  0
 38  6  1  0  0  0  0
 41  9  1  0  0  0  0
 43 10  1  0  0  0  0
 44 11  1  0  0  0  0
 46 12  1  0  0  0  0
 47 12  1  0  0  0  0
 51 17  1  0  0  0  0
 53 19  1  0  0  0  0
 54 20  1  0  0  0  0
 55 20  1  0  0  0  0
 56 25  1  0  0  0  0
 60 32  1  0  0  0  0
 61 33  1  0  0  0  0
M  END
