omegapdb_1z1r_04.log
 OpenBabel09261812563D

 66 68  0  0  1  0  0  0  0  0999 V2000
   -0.1313   -1.6844   -0.5905 C   0  0  2  0  0  0  0  0  0  0  0  0
   -1.0502   -2.8015   -1.1206 C   0  0  0  0  0  0  0  0  0  0  0  0
   -2.4774   -2.5451   -0.6897 C   0  0  0  0  0  0  0  0  0  0  0  0
   -2.8066   -2.4341    0.6641 C   0  0  0  0  0  0  0  0  0  0  0  0
   -4.0544   -1.9793    1.0717 C   0  0  0  0  0  0  0  0  0  0  0  0
   -5.0072   -1.6187    0.1160 C   0  0  0  0  0  0  0  0  0  0  0  0
   -4.7229   -1.7992   -1.2357 C   0  0  0  0  0  0  0  0  0  0  0  0
   -3.4667   -2.2511   -1.6276 C   0  0  0  0  0  0  0  0  0  0  0  0
   -6.2336   -1.1119    0.4441 O   0  0  0  0  0  0  0  0  0  0  0  0
   -6.2766   -0.0113    1.3580 C   0  0  0  0  0  0  0  0  0  0  0  0
   -6.0757    1.3325    0.6618 C   0  0  0  0  0  0  0  0  0  0  0  0
   -4.6410    1.6287    0.2206 C   0  0  0  0  0  0  0  0  0  0  0  0
   -3.7253    1.9167    1.4045 C   0  0  0  0  0  0  0  0  0  0  0  0
   -4.1465    1.9695    2.5483 O   0  0  0  0  0  0  0  0  0  0  0  0
   -2.4000    2.1903    1.1416 N   0  0  0  0  0  0  0  0  0  0  0  0
   -1.6740    1.7649   -0.0346 C   0  0  2  0  0  0  0  0  0  0  0  0
   -0.9303    0.4599    0.2771 C   0  0  0  0  0  0  0  0  0  0  0  0
   -0.4824    0.2584    1.3989 O   0  0  0  0  0  0  0  0  0  0  0  0
   -0.7435   -0.3799   -0.7691 N   0  0  0  0  0  0  0  0  0  0  0  0
   -0.6335    2.8057   -0.4726 C   0  0  0  0  0  0  0  0  0  0  0  0
   -0.0909    2.4614   -1.8549 C   0  0  0  0  0  0  0  0  0  0  0  0
   -0.8198    1.9951   -2.7234 O   0  0  0  0  0  0  0  0  0  0  0  0
    1.2187    2.7303   -2.0713 N   0  0  0  0  0  0  0  0  0  0  0  0
    1.2696   -1.7028   -1.2088 C   0  0  2  0  0  0  0  0  0  0  0  0
    1.8328   -2.9692   -0.9532 O   0  0  0  0  0  0  0  0  0  0  0  0
    2.1209   -0.5821   -0.6226 C   0  0  0  0  0  0  0  0  0  0  0  0
    3.4373   -0.5749   -1.2759 N   0  0  0  0  0  0  0  0  0  0  0  0
    4.4618    0.6722   -0.8107 S   0  0  0  0  0  0  0  0  0  0  0  0
    3.6827    1.8704   -0.4985 O   0  0  0  0  0  0  0  0  0  0  0  0
    5.4931    0.7178   -1.8325 O   0  0  0  0  0  0  0  0  0  0  0  0
    5.1347    0.0640    0.7092 C   0  0  0  0  0  0  0  0  0  0  0  0
    4.5580    0.4476    1.9156 C   0  0  0  0  0  0  0  0  0  0  0  0
    5.0865   -0.0571    3.0997 C   0  0  0  0  0  0  0  0  0  0  0  0
    6.1769   -0.9212    3.0629 C   0  0  0  0  0  0  0  0  0  0  0  0
    6.7507   -1.2863    1.8460 C   0  0  0  0  0  0  0  0  0  0  0  0
    6.2299   -0.7942    0.6561 C   0  0  0  0  0  0  0  0  0  0  0  0
   -0.0102   -1.8061    0.4901 H   0  0  0  0  0  0  0  0  0  0  0  0
   -0.9953   -2.8366   -2.2174 H   0  0  0  0  0  0  0  0  0  0  0  0
   -0.6652   -3.7597   -0.7561 H   0  0  0  0  0  0  0  0  0  0  0  0
   -2.0620   -2.6693    1.4224 H   0  0  0  0  0  0  0  0  0  0  0  0
   -4.2780   -1.8852    2.1304 H   0  0  0  0  0  0  0  0  0  0  0  0
   -5.4829   -1.5388   -1.9670 H   0  0  0  0  0  0  0  0  0  0  0  0
   -3.2436   -2.3426   -2.6896 H   0  0  0  0  0  0  0  0  0  0  0  0
   -5.5482   -0.1345    2.1657 H   0  0  0  0  0  0  0  0  0  0  0  0
   -7.2774   -0.0521    1.7964 H   0  0  0  0  0  0  0  0  0  0  0  0
   -6.3977    2.1171    1.3549 H   0  0  0  0  0  0  0  0  0  0  0  0
   -6.7373    1.3658   -0.2116 H   0  0  0  0  0  0  0  0  0  0  0  0
   -4.6253    2.5046   -0.4419 H   0  0  0  0  0  0  0  0  0  0  0  0
   -4.2411    0.7969   -0.3701 H   0  0  0  0  0  0  0  0  0  0  0  0
   -1.8447    2.1641    1.9909 H   0  0  0  0  0  0  0  0  0  0  0  0
   -2.3654    1.6307   -0.8680 H   0  0  0  0  0  0  0  0  0  0  0  0
   -1.1587   -0.1346   -1.6597 H   0  0  0  0  0  0  0  0  0  0  0  0
   -1.1215    3.7847   -0.5380 H   0  0  0  0  0  0  0  0  0  0  0  0
    0.1671    2.8834    0.2730 H   0  0  0  0  0  0  0  0  0  0  0  0
    1.8900    2.8735   -1.3275 H   0  0  0  0  0  0  0  0  0  0  0  0
    1.5886    2.4959   -2.9813 H   0  0  0  0  0  0  0  0  0  0  0  0
    1.1711   -1.5344   -2.2998 H   0  0  0  0  0  0  0  0  0  0  0  0
    2.7862   -2.8954   -1.1025 H   0  0  0  0  0  0  0  0  0  0  0  0
    1.6148    0.3792   -0.7422 H   0  0  0  0  0  0  0  0  0  0  0  0
    2.2685   -0.7688    0.4471 H   0  0  0  0  0  0  0  0  0  0  0  0
    3.3726   -0.5223   -2.2928 H   0  0  0  0  0  0  0  0  0  0  0  0
    3.7197    1.1379    1.9212 H   0  0  0  0  0  0  0  0  0  0  0  0
    4.6472    0.2297    4.0507 H   0  0  0  0  0  0  0  0  0  0  0  0
    6.5880   -1.3109    3.9903 H   0  0  0  0  0  0  0  0  0  0  0  0
    7.6079   -1.9532    1.8254 H   0  0  0  0  0  0  0  0  0  0  0  0
    6.6681   -1.0535   -0.3032 H   0  0  0  0  0  0  0  0  0  0  0  0
  1 37  1  1  0  0  0
  2 39  1  0  0  0  0
  2  3  1  0  0  0  0
  2  1  1  0  0  0  0
  3  4  2  0  0  0  0
  4  5  1  0  0  0  0
  4 40  1  0  0  0  0
  5 41  1  0  0  0  0
  6  9  1  0  0  0  0
  6  5  2  0  0  0  0
  7  6  1  0  0  0  0
  8  7  2  0  0  0  0
  8  3  1  0  0  0  0
  9 10  1  0  0  0  0
 10 45  1  0  0  0  0
 10 44  1  0  0  0  0
 11 46  1  0  0  0  0
 11 10  1  0  0  0  0
 12 11  1  0  0  0  0
 12 13  1  0  0  0  0
 13 14  2  0  0  0  0
 15 13  1  0  0  0  0
 15 50  1  0  0  0  0
 16 51  1  6  0  0  0
 16 17  1  0  0  0  0
 16 15  1  0  0  0  0
 17 18  2  0  0  0  0
 19  1  1  0  0  0  0
 19 17  1  0  0  0  0
 20 16  1  0  0  0  0
 20 54  1  0  0  0  0
 21 20  1  0  0  0  0
 22 21  2  0  0  0  0
 23 21  1  0  0  0  0
 23 55  1  0  0  0  0
 24 57  1  6  0  0  0
 24 25  1  0  0  0  0
 24 26  1  0  0  0  0
 24  1  1  0  0  0  0
 26 60  1  0  0  0  0
 27 28  1  0  0  0  0
 27 26  1  0  0  0  0
 28 29  2  0  0  0  0
 28 31  1  0  0  0  0
 30 28  2  0  0  0  0
 31 32  1  0  0  0  0
 32 62  1  0  0  0  0
 32 33  2  0  0  0  0
 33 63  1  0  0  0  0
 34 33  1  0  0  0  0
 34 64  1  0  0  0  0
 35 34  2  0  0  0  0
 36 31  2  0  0  0  0
 36 35  1  0  0  0  0
 38  2  1  0  0  0  0
 42  7  1  0  0  0  0
 43  8  1  0  0  0  0
 47 11  1  0  0  0  0
 48 12  1  0  0  0  0
 49 12  1  0  0  0  0
 52 19  1  0  0  0  0
 53 20  1  0  0  0  0
 56 23  1  0  0  0  0
 58 25  1  0  0  0  0
 59 26  1  0  0  0  0
 61 27  1  0  0  0  0
 65 35  1  0  0  0  0
 66 36  1  0  0  0  0
M  END
