omegapdb_1qxw_19.log
 OpenBabel09261812563D

 36 36  0  0  1  0  0  0  0  0999 V2000
    2.8591   -1.5494    0.9216 C   0  0  0  0  0  0  0  0  0  0  0  0
    3.8476   -1.7692   -0.1904 C   0  0  0  0  0  0  0  0  0  0  0  0
    3.3138   -0.3953    0.0824 C   0  0  0  0  0  0  0  0  0  0  0  0
    2.4175    0.1787   -0.8927 N   0  0  0  0  0  0  0  0  0  0  0  0
    1.7757    1.4236   -0.4656 C   0  0  0  0  0  0  0  0  0  0  0  0
    0.4104    1.2489    0.2134 C   0  0  0  0  0  0  0  0  0  0  0  0
   -0.6194    0.4862   -0.6687 C   0  0  1  0  0  0  0  0  0  0  0  0
   -0.2970   -0.9416   -0.5752 N   0  0  0  0  0  0  0  0  0  0  0  0
   -2.0528    0.7513   -0.1992 C   0  0  0  0  0  0  0  0  0  0  0  0
   -3.1285   -0.0407   -0.9650 C   0  0  0  0  0  0  0  0  0  0  0  0
   -3.5969   -1.3246   -0.2644 C   0  0  0  0  0  0  0  0  0  0  0  0
   -4.4753   -1.0476    0.9547 C   0  0  0  0  0  0  0  0  0  0  0  0
    0.5230    0.5937    1.4505 O   0  0  0  0  0  0  0  0  0  0  0  0
   -0.0136    2.5696    0.4588 O   0  0  0  0  0  0  0  0  0  0  0  0
    1.8463   -1.9084    0.7657 H   0  0  0  0  0  0  0  0  0  0  0  0
    3.2087   -1.5996    1.9485 H   0  0  0  0  0  0  0  0  0  0  0  0
    3.4861   -2.2671   -1.0864 H   0  0  0  0  0  0  0  0  0  0  0  0
    4.8836   -1.9802    0.0582 H   0  0  0  0  0  0  0  0  0  0  0  0
    3.9974    0.3080    0.5674 H   0  0  0  0  0  0  0  0  0  0  0  0
    2.9484    0.3609   -1.7379 H   0  0  0  0  0  0  0  0  0  0  0  0
    2.4009    1.9924    0.2393 H   0  0  0  0  0  0  0  0  0  0  0  0
    1.6164    2.0540   -1.3477 H   0  0  0  0  0  0  0  0  0  0  0  0
   -0.5204    0.8737   -1.6976 H   0  0  0  0  0  0  0  0  0  0  0  0
    0.6170   -1.0794   -1.0059 H   0  0  0  0  0  0  0  0  0  0  0  0
   -0.9750   -1.4939   -1.0916 H   0  0  0  0  0  0  0  0  0  0  0  0
   -2.2326    1.8250   -0.3073 H   0  0  0  0  0  0  0  0  0  0  0  0
   -2.1154    0.5235    0.8741 H   0  0  0  0  0  0  0  0  0  0  0  0
   -2.7564   -0.2791   -1.9725 H   0  0  0  0  0  0  0  0  0  0  0  0
   -4.0076    0.5976   -1.1236 H   0  0  0  0  0  0  0  0  0  0  0  0
   -2.7289   -1.9200    0.0475 H   0  0  0  0  0  0  0  0  0  0  0  0
   -4.1611   -1.9395   -0.9775 H   0  0  0  0  0  0  0  0  0  0  0  0
   -5.3811   -0.5004    0.6670 H   0  0  0  0  0  0  0  0  0  0  0  0
   -4.7860   -1.9787    1.4402 H   0  0  0  0  0  0  0  0  0  0  0  0
   -3.9481   -0.4454    1.7035 H   0  0  0  0  0  0  0  0  0  0  0  0
    0.2487   -0.3263    1.2720 H   0  0  0  0  0  0  0  0  0  0  0  0
   -0.5628    2.5169    1.2530 H   0  0  0  0  0  0  0  0  0  0  0  0
  1 16  1  0  0  0  0
  2 18  1  0  0  0  0
  2  3  1  0  0  0  0
  2  1  1  0  0  0  0
  3 19  1  0  0  0  0
  3  1  1  0  0  0  0
  4  5  1  0  0  0  0
  4  3  1  0  0  0  0
  5  6  1  0  0  0  0
  5 21  1  0  0  0  0
  6 14  1  0  0  0  0
  6 13  1  0  0  0  0
  7 23  1  6  0  0  0
  7  8  1  0  0  0  0
  7  9  1  0  0  0  0
  7  6  1  0  0  0  0
  9 27  1  0  0  0  0
 10 11  1  0  0  0  0
 10  9  1  0  0  0  0
 11 30  1  0  0  0  0
 11 12  1  0  0  0  0
 12 33  1  0  0  0  0
 12 34  1  0  0  0  0
 14 36  1  0  0  0  0
 15  1  1  0  0  0  0
 17  2  1  0  0  0  0
 20  4  1  0  0  0  0
 22  5  1  0  0  0  0
 24  8  1  0  0  0  0
 25  8  1  0  0  0  0
 26  9  1  0  0  0  0
 28 10  1  0  0  0  0
 29 10  1  0  0  0  0
 31 11  1  0  0  0  0
 32 12  1  0  0  0  0
 35 13  1  0  0  0  0
M  END
