omegapdb_1qxw_02.log
 OpenBabel09261812563D

 36 36  0  0  1  0  0  0  0  0999 V2000
   -5.1050   -0.3147    0.2665 C   0  0  0  0  0  0  0  0  0  0  0  0
   -4.4497   -0.9014   -0.9532 C   0  0  0  0  0  0  0  0  0  0  0  0
   -3.7252   -0.8896    0.3601 C   0  0  0  0  0  0  0  0  0  0  0  0
   -2.6335    0.0340    0.4964 N   0  0  0  0  0  0  0  0  0  0  0  0
   -1.3536   -0.4893    0.0301 C   0  0  0  0  0  0  0  0  0  0  0  0
   -0.3570    0.6682    0.0370 C   0  0  0  0  0  0  0  0  0  0  0  0
    1.0107    0.3774   -0.6046 C   0  0  1  0  0  0  0  0  0  0  0  0
    1.7938    1.5989   -0.3880 N   0  0  0  0  0  0  0  0  0  0  0  0
    1.6962   -0.8422    0.0150 C   0  0  0  0  0  0  0  0  0  0  0  0
    3.1509   -1.0606   -0.4348 C   0  0  0  0  0  0  0  0  0  0  0  0
    4.1931   -0.4687    0.5191 C   0  0  0  0  0  0  0  0  0  0  0  0
    5.6211   -0.6428    0.0093 C   0  0  0  0  0  0  0  0  0  0  0  0
   -0.1848    1.0214    1.3891 O   0  0  0  0  0  0  0  0  0  0  0  0
   -0.8963    1.7383   -0.7030 O   0  0  0  0  0  0  0  0  0  0  0  0
   -5.1854    0.7670    0.3182 H   0  0  0  0  0  0  0  0  0  0  0  0
   -5.9230   -0.8586    0.7296 H   0  0  0  0  0  0  0  0  0  0  0  0
   -4.8162   -1.8498   -1.3349 H   0  0  0  0  0  0  0  0  0  0  0  0
   -4.0933   -0.2071   -1.7090 H   0  0  0  0  0  0  0  0  0  0  0  0
   -3.6246   -1.8531    0.8691 H   0  0  0  0  0  0  0  0  0  0  0  0
   -2.5279    0.3174    1.4674 H   0  0  0  0  0  0  0  0  0  0  0  0
   -0.9786   -1.3196    0.6473 H   0  0  0  0  0  0  0  0  0  0  0  0
   -1.4827   -0.8504   -0.9970 H   0  0  0  0  0  0  0  0  0  0  0  0
    0.8325    0.1812   -1.6753 H   0  0  0  0  0  0  0  0  0  0  0  0
    1.3274    2.3610   -0.8743 H   0  0  0  0  0  0  0  0  0  0  0  0
    2.7184    1.5054   -0.7966 H   0  0  0  0  0  0  0  0  0  0  0  0
    1.6548   -0.7459    1.1075 H   0  0  0  0  0  0  0  0  0  0  0  0
    1.1002   -1.7250   -0.2467 H   0  0  0  0  0  0  0  0  0  0  0  0
    3.2979   -0.6514   -1.4471 H   0  0  0  0  0  0  0  0  0  0  0  0
    3.3472   -2.1368   -0.5273 H   0  0  0  0  0  0  0  0  0  0  0  0
    4.0874   -0.9592    1.4962 H   0  0  0  0  0  0  0  0  0  0  0  0
    3.9816    0.5931    0.6975 H   0  0  0  0  0  0  0  0  0  0  0  0
    5.7656   -0.1280   -0.9484 H   0  0  0  0  0  0  0  0  0  0  0  0
    6.3530   -0.2411    0.7179 H   0  0  0  0  0  0  0  0  0  0  0  0
    5.8551   -1.7025   -0.1490 H   0  0  0  0  0  0  0  0  0  0  0  0
    0.5834    1.6203    1.3873 H   0  0  0  0  0  0  0  0  0  0  0  0
   -1.8357    1.7574   -0.4470 H   0  0  0  0  0  0  0  0  0  0  0  0
  1 15  1  0  0  0  0
  1  3  1  0  0  0  0
  1 16  1  0  0  0  0
  2  1  1  0  0  0  0
  2  3  1  0  0  0  0
  3  4  1  0  0  0  0
  3 19  1  0  0  0  0
  4 20  1  0  0  0  0
  5  6  1  0  0  0  0
  5  4  1  0  0  0  0
  5 21  1  0  0  0  0
  6 13  1  0  0  0  0
  7 23  1  6  0  0  0
  7  8  1  0  0  0  0
  7  9  1  0  0  0  0
  7  6  1  0  0  0  0
  9 26  1  0  0  0  0
 10  9  1  0  0  0  0
 10 11  1  0  0  0  0
 11 31  1  0  0  0  0
 11 30  1  0  0  0  0
 12 11  1  0  0  0  0
 12 33  1  0  0  0  0
 14 36  1  0  0  0  0
 14  6  1  0  0  0  0
 17  2  1  0  0  0  0
 18  2  1  0  0  0  0
 22  5  1  0  0  0  0
 24  8  1  0  0  0  0
 25  8  1  0  0  0  0
 27  9  1  0  0  0  0
 28 10  1  0  0  0  0
 29 10  1  0  0  0  0
 32 12  1  0  0  0  0
 34 12  1  0  0  0  0
 35 13  1  0  0  0  0
M  END
