omegapdb_2f7p_18.log
 OpenBabel09261812563D

 34 35  0  0  1  0  0  0  0  0999 V2000
   -0.9946    0.1864   -0.8762 C   0  0  1  0  0  0  0  0  0  0  0  0
    0.4529    0.1688   -0.8692 N   0  0  0  0  0  0  0  0  0  0  0  0
    1.1419   -0.6699    0.1093 C   0  0  0  0  0  0  0  0  0  0  0  0
    2.6311   -0.3949    0.0985 C   0  0  0  0  0  0  0  0  0  0  0  0
    3.1216    0.9074   -0.0169 C   0  0  0  0  0  0  0  0  0  0  0  0
    4.4903    1.1519    0.0006 C   0  0  0  0  0  0  0  0  0  0  0  0
    5.3895    0.0966    0.1344 C   0  0  0  0  0  0  0  0  0  0  0  0
    4.9100   -1.2042    0.2475 C   0  0  0  0  0  0  0  0  0  0  0  0
    3.5390   -1.4457    0.2253 C   0  0  0  0  0  0  0  0  0  0  0  0
   -1.8218   -1.1147   -0.9132 C   0  0  1  0  0  0  0  0  0  0  0  0
   -1.5025   -2.0870    0.0737 O   0  0  0  0  0  0  0  0  0  0  0  0
   -3.2377   -0.5834   -0.6414 C   0  0  1  0  0  0  0  0  0  0  0  0
   -4.1355   -1.6044   -0.2666 O   0  0  0  0  0  0  0  0  0  0  0  0
   -3.0100    0.4187    0.5210 C   0  0  1  0  0  0  0  0  0  0  0  0
   -2.9864   -0.3185    1.7386 O   0  0  0  0  0  0  0  0  0  0  0  0
   -1.5959    0.9875    0.3027 C   0  0  2  0  0  0  0  0  0  0  0  0
   -1.6100    2.7799   -0.0021 S   0  0  0  0  0  0  0  0  0  0  0  0
   -1.2793    0.7205   -1.7933 H   0  0  0  0  0  0  0  0  0  0  0  0
    0.8083   -0.0369   -1.7967 H   0  0  0  0  0  0  0  0  0  0  0  0
    0.9647   -1.7439   -0.0393 H   0  0  0  0  0  0  0  0  0  0  0  0
    0.7399   -0.4310    1.1033 H   0  0  0  0  0  0  0  0  0  0  0  0
    2.4152    1.7258   -0.1306 H   0  0  0  0  0  0  0  0  0  0  0  0
    4.8583    2.1710   -0.0909 H   0  0  0  0  0  0  0  0  0  0  0  0
    6.4595    0.2879    0.1468 H   0  0  0  0  0  0  0  0  0  0  0  0
    5.6044   -2.0351    0.3459 H   0  0  0  0  0  0  0  0  0  0  0  0
    3.1675   -2.4659    0.3065 H   0  0  0  0  0  0  0  0  0  0  0  0
   -1.7328   -1.6287   -1.8756 H   0  0  0  0  0  0  0  0  0  0  0  0
   -1.6616   -1.6702    0.9410 H   0  0  0  0  0  0  0  0  0  0  0  0
   -3.6353   -0.0624   -1.5200 H   0  0  0  0  0  0  0  0  0  0  0  0
   -3.5741   -2.3752   -0.0761 H   0  0  0  0  0  0  0  0  0  0  0  0
   -3.7858    1.1943    0.5648 H   0  0  0  0  0  0  0  0  0  0  0  0
   -3.7798   -0.8791    1.6986 H   0  0  0  0  0  0  0  0  0  0  0  0
   -1.0333    0.8046    1.2226 H   0  0  0  0  0  0  0  0  0  0  0  0
   -0.3291    2.8300   -0.4030 H   0  0  0  0  0  0  0  0  0  0  0  0
  1 10  1  6  0  0  0
  1  2  1  0  0  0  0
  2  3  1  0  0  0  0
  3 21  1  0  0  0  0
  4  3  1  0  0  0  0
  4  9  2  0  0  0  0
  5  6  2  0  0  0  0
  5  4  1  0  0  0  0
  6  7  1  0  0  0  0
  7 24  1  0  0  0  0
  7  8  2  0  0  0  0
  8 25  1  0  0  0  0
  9  8  1  0  0  0  0
  9 26  1  0  0  0  0
 10 12  1  1  0  0  0
 10 11  1  0  0  0  0
 11 28  1  0  0  0  0
 12 13  1  0  0  0  0
 12 14  1  1  0  0  0
 13 30  1  0  0  0  0
 14 16  1  6  0  0  0
 14 31  1  0  0  0  0
 14 15  1  0  0  0  0
 16  1  1  6  0  0  0
 16 33  1  0  0  0  0
 17 16  1  0  0  0  0
 18  1  1  0  0  0  0
 19  2  1  0  0  0  0
 20  3  1  0  0  0  0
 22  5  1  0  0  0  0
 23  6  1  0  0  0  0
 27 10  1  0  0  0  0
 29 12  1  0  0  0  0
 32 15  1  0  0  0  0
 34 17  1  0  0  0  0
M  END
