omegapdb_1v2k_01.log
 OpenBabel09261812563D

 61 65  0  0  0  0  0  0  0  0999 V2000
   -9.4598    0.2861    2.0311 N   0  0  0  0  0  0  0  0  0  0  0  0
   -8.8049    1.2646    1.3975 C   0  0  0  0  0  0  0  0  0  0  0  0
   -7.6724    1.0850    0.6222 C   0  0  0  0  0  0  0  0  0  0  0  0
   -7.1361   -0.2058    0.4641 C   0  0  0  0  0  0  0  0  0  0  0  0
   -7.8163   -1.2361    1.1303 C   0  0  0  0  0  0  0  0  0  0  0  0
   -8.9484   -0.9341    1.8780 C   0  0  0  0  0  0  0  0  0  0  0  0
   -6.0221   -0.4333   -0.3443 N   0  0  0  0  0  0  0  0  0  0  0  0
   -5.5988   -1.8142   -0.5554 C   0  0  0  0  0  0  0  0  0  0  0  0
   -4.6858   -1.9284   -1.7771 C   0  0  0  0  0  0  0  0  0  0  0  0
   -3.5113   -0.9424   -1.7869 C   0  0  0  0  0  0  0  0  0  0  0  0
   -4.0428    0.4722   -1.4890 C   0  0  0  0  0  0  0  0  0  0  0  0
   -4.8934    0.4860   -0.2231 C   0  0  0  0  0  0  0  0  0  0  0  0
   -2.4311   -1.3417   -0.7808 C   0  0  0  0  0  0  0  0  0  0  0  0
   -2.6676   -2.1225    0.1320 O   0  0  0  0  0  0  0  0  0  0  0  0
   -1.1929   -0.7593   -0.9060 N   0  0  0  0  0  0  0  0  0  0  0  0
   -0.1472   -1.1152    0.0408 C   0  0  0  0  0  0  0  0  0  0  0  0
    0.5426    0.1370    0.5655 C   0  0  0  0  0  0  0  0  0  0  0  0
    1.0478    0.9142   -0.5734 N   0  0  0  0  0  0  0  0  0  0  0  0
   -0.0277    1.3130   -1.4899 C   0  0  0  0  0  0  0  0  0  0  0  0
   -0.7178    0.0572   -2.0112 C   0  0  0  0  0  0  0  0  0  0  0  0
    2.0750    2.1777   -0.1478 S   0  0  0  0  0  0  0  0  0  0  0  0
    1.5801    2.8574    1.0424 O   0  0  0  0  0  0  0  0  0  0  0  0
    2.3245    2.9170   -1.3748 O   0  0  0  0  0  0  0  0  0  0  0  0
    3.5517    1.3040    0.3131 C   0  0  0  0  0  0  0  0  0  0  0  0
    4.4001    0.8745   -0.6720 C   0  0  0  0  0  0  0  0  0  0  0  0
    5.5862    0.1819   -0.3245 C   0  0  0  0  0  0  0  0  0  0  0  0
    5.8736   -0.0525    1.0459 C   0  0  0  0  0  0  0  0  0  0  0  0
    4.9732    0.4248    2.0365 C   0  0  0  0  0  0  0  0  0  0  0  0
    3.8346    1.0970    1.6844 C   0  0  0  0  0  0  0  0  0  0  0  0
    7.0594   -0.7520    1.3954 C   0  0  0  0  0  0  0  0  0  0  0  0
    7.9058   -1.1854    0.4139 C   0  0  0  0  0  0  0  0  0  0  0  0
    7.6346   -0.9536   -0.9575 C   0  0  0  0  0  0  0  0  0  0  0  0
    6.4978   -0.2833   -1.3116 C   0  0  0  0  0  0  0  0  0  0  0  0
    9.3564   -2.0432    0.8352 Cl  0  0  0  0  0  0  0  0  0  0  0  0
   -9.2212    2.2652    1.5105 H   0  0  0  0  0  0  0  0  0  0  0  0
   -7.2353    1.9420    0.1200 H   0  0  0  0  0  0  0  0  0  0  0  0
   -7.4689   -2.2622    1.0978 H   0  0  0  0  0  0  0  0  0  0  0  0
   -9.4705   -1.7382    2.3963 H   0  0  0  0  0  0  0  0  0  0  0  0
   -6.4894   -2.4193   -0.7471 H   0  0  0  0  0  0  0  0  0  0  0  0
   -5.0883   -2.2184    0.3300 H   0  0  0  0  0  0  0  0  0  0  0  0
   -5.2850   -1.7348   -2.6756 H   0  0  0  0  0  0  0  0  0  0  0  0
   -4.3151   -2.9564   -1.8403 H   0  0  0  0  0  0  0  0  0  0  0  0
   -3.0758   -0.9565   -2.7931 H   0  0  0  0  0  0  0  0  0  0  0  0
   -4.6621    0.8020   -2.3319 H   0  0  0  0  0  0  0  0  0  0  0  0
   -3.2233    1.1928   -1.3768 H   0  0  0  0  0  0  0  0  0  0  0  0
   -5.2621    1.4976   -0.0490 H   0  0  0  0  0  0  0  0  0  0  0  0
   -4.2733    0.2117    0.6484 H   0  0  0  0  0  0  0  0  0  0  0  0
    0.5941   -1.7596   -0.4527 H   0  0  0  0  0  0  0  0  0  0  0  0
   -0.6095   -1.6734    0.8553 H   0  0  0  0  0  0  0  0  0  0  0  0
   -0.1532    0.7365    1.1701 H   0  0  0  0  0  0  0  0  0  0  0  0
    1.3863   -0.1567    1.1985 H   0  0  0  0  0  0  0  0  0  0  0  0
    0.4121    1.8734   -2.3171 H   0  0  0  0  0  0  0  0  0  0  0  0
   -0.7636    1.9545   -0.9785 H   0  0  0  0  0  0  0  0  0  0  0  0
   -0.0020   -0.5209   -2.6135 H   0  0  0  0  0  0  0  0  0  0  0  0
   -1.5431    0.3536   -2.6584 H   0  0  0  0  0  0  0  0  0  0  0  0
    4.1711    1.0723   -1.7163 H   0  0  0  0  0  0  0  0  0  0  0  0
    5.2071    0.2563    3.0849 H   0  0  0  0  0  0  0  0  0  0  0  0
    3.1513    1.4902    2.4312 H   0  0  0  0  0  0  0  0  0  0  0  0
    7.2875   -0.9375    2.4412 H   0  0  0  0  0  0  0  0  0  0  0  0
    8.3349   -1.3111   -1.7057 H   0  0  0  0  0  0  0  0  0  0  0  0
    6.2784   -0.0975   -2.3602 H   0  0  0  0  0  0  0  0  0  0  0  0
  2 35  1  0  0  0  0
  2  1  2  0  0  0  0
  3  2  1  0  0  0  0
  4  3  2  0  0  0  0
  4  5  1  0  0  0  0
  5  6  2  0  0  0  0
  6  1  1  0  0  0  0
  6 38  1  0  0  0  0
  7 12  1  0  0  0  0
  7  4  1  0  0  0  0
  8  7  1  0  0  0  0
  8 40  1  0  0  0  0
  9  8  1  0  0  0  0
 10  9  1  0  0  0  0
 10 11  1  0  0  0  0
 10 13  1  0  0  0  0
 11 45  1  0  0  0  0
 11 12  1  0  0  0  0
 12 46  1  0  0  0  0
 12 47  1  0  0  0  0
 13 14  2  0  0  0  0
 15 13  1  0  0  0  0
 15 16  1  0  0  0  0
 16 17  1  0  0  0  0
 16 49  1  0  0  0  0
 17 50  1  0  0  0  0
 17 51  1  0  0  0  0
 18 21  1  0  0  0  0
 18 17  1  0  0  0  0
 19 53  1  0  0  0  0
 19 18  1  0  0  0  0
 20 19  1  0  0  0  0
 20 15  1  0  0  0  0
 21 24  1  0  0  0  0
 21 22  2  0  0  0  0
 23 21  2  0  0  0  0
 24 29  2  0  0  0  0
 25 26  2  0  0  0  0
 25 24  1  0  0  0  0
 26 27  1  0  0  0  0
 27 30  1  0  0  0  0
 27 28  2  0  0  0  0
 28 57  1  0  0  0  0
 29 28  1  0  0  0  0
 29 58  1  0  0  0  0
 30 59  1  0  0  0  0
 31 34  1  0  0  0  0
 31 30  2  0  0  0  0
 32 31  1  0  0  0  0
 33 32  2  0  0  0  0
 33 26  1  0  0  0  0
 36  3  1  0  0  0  0
 37  5  1  0  0  0  0
 39  8  1  0  0  0  0
 41  9  1  0  0  0  0
 42  9  1  0  0  0  0
 43 10  1  0  0  0  0
 44 11  1  0  0  0  0
 48 16  1  0  0  0  0
 52 19  1  0  0  0  0
 54 20  1  0  0  0  0
 55 20  1  0  0  0  0
 56 25  1  0  0  0  0
 60 32  1  0  0  0  0
 61 33  1  0  0  0  0
M  END
