omegapdb_2byh_13.log
 OpenBabel09261812563D

 40 42  0  0  0  0  0  0  0  0999 V2000
   -6.7525   -2.4525    0.1132 O   0  0  0  0  0  0  0  0  0  0  0  0
   -6.6574   -1.2590    0.3254 C   0  0  0  0  0  0  0  0  0  0  0  0
   -7.8725   -0.4418    0.7151 C   0  0  0  0  0  0  0  0  0  0  0  0
   -5.3376   -0.5646    0.2051 C   0  0  0  0  0  0  0  0  0  0  0  0
   -4.2197   -1.3154   -0.1638 C   0  0  0  0  0  0  0  0  0  0  0  0
   -2.9642   -0.7408   -0.2937 C   0  0  0  0  0  0  0  0  0  0  0  0
   -2.8126    0.6296   -0.0495 C   0  0  0  0  0  0  0  0  0  0  0  0
   -3.9269    1.3921    0.3210 C   0  0  0  0  0  0  0  0  0  0  0  0
   -5.1733    0.8012    0.4469 C   0  0  0  0  0  0  0  0  0  0  0  0
   -1.5869    1.3088   -0.1600 N   0  0  0  0  0  0  0  0  0  0  0  0
   -0.3501    0.8041   -0.4951 C   0  0  0  0  0  0  0  0  0  0  0  0
   -0.1361   -0.3781   -0.7074 O   0  0  0  0  0  0  0  0  0  0  0  0
    0.7023    1.8449   -0.5858 C   0  0  0  0  0  0  0  0  0  0  0  0
    0.5492    3.2130   -0.9235 C   0  0  0  0  0  0  0  0  0  0  0  0
    1.6979    3.8618   -0.9090 N   0  0  0  0  0  0  0  0  0  0  0  0
    2.5927    2.9288   -0.5508 N   0  0  0  0  0  0  0  0  0  0  0  0
    2.0664    1.6897   -0.3591 C   0  0  0  0  0  0  0  0  0  0  0  0
    2.9301    0.5618    0.0339 C   0  0  0  0  0  0  0  0  0  0  0  0
    2.8317   -0.6838   -0.5975 C   0  0  0  0  0  0  0  0  0  0  0  0
    3.6945   -1.7162   -0.2833 C   0  0  0  0  0  0  0  0  0  0  0  0
    3.5602   -3.2438   -1.0890 Cl  0  0  0  0  0  0  0  0  0  0  0  0
    4.6887   -1.5317    0.6881 C   0  0  0  0  0  0  0  0  0  0  0  0
    5.5141   -2.5636    0.9618 O   0  0  0  0  0  0  0  0  0  0  0  0
    4.7837   -0.3062    1.3390 C   0  0  0  0  0  0  0  0  0  0  0  0
    3.9130    0.7301    1.0221 C   0  0  0  0  0  0  0  0  0  0  0  0
    4.0860    1.8966    1.7079 O   0  0  0  0  0  0  0  0  0  0  0  0
   -8.0577    0.3533   -0.0159 H   0  0  0  0  0  0  0  0  0  0  0  0
   -7.7284    0.0326    1.6922 H   0  0  0  0  0  0  0  0  0  0  0  0
   -8.7384   -1.1041    0.7574 H   0  0  0  0  0  0  0  0  0  0  0  0
   -4.3564   -2.3771   -0.3481 H   0  0  0  0  0  0  0  0  0  0  0  0
   -2.1053   -1.3348   -0.5743 H   0  0  0  0  0  0  0  0  0  0  0  0
   -3.8125    2.4582    0.5099 H   0  0  0  0  0  0  0  0  0  0  0  0
   -6.0200    1.4184    0.7361 H   0  0  0  0  0  0  0  0  0  0  0  0
   -1.6132    2.2846    0.0971 H   0  0  0  0  0  0  0  0  0  0  0  0
   -0.3549    3.7394   -1.2077 H   0  0  0  0  0  0  0  0  0  0  0  0
    3.5747    3.1668   -0.5441 H   0  0  0  0  0  0  0  0  0  0  0  0
    2.0537   -0.8424   -1.3352 H   0  0  0  0  0  0  0  0  0  0  0  0
    6.1380   -2.2968    1.6493 H   0  0  0  0  0  0  0  0  0  0  0  0
    5.5272   -0.1401    2.1144 H   0  0  0  0  0  0  0  0  0  0  0  0
    3.2807    2.4291    1.6431 H   0  0  0  0  0  0  0  0  0  0  0  0
  1  2  2  0  0  0  0
  2  3  1  0  0  0  0
  3 29  1  0  0  0  0
  3 28  1  0  0  0  0
  4  2  1  0  0  0  0
  4  9  2  0  0  0  0
  5  4  1  0  0  0  0
  6  5  2  0  0  0  0
  6  7  1  0  0  0  0
  7  8  2  0  0  0  0
  8  9  1  0  0  0  0
  8 32  1  0  0  0  0
  9 33  1  0  0  0  0
 10  7  1  0  0  0  0
 10 34  1  0  0  0  0
 11 10  1  0  0  0  0
 12 11  2  0  0  0  0
 13 11  1  0  0  0  0
 13 17  2  0  0  0  0
 14 15  2  0  0  0  0
 14 13  1  0  0  0  0
 15 16  1  0  0  0  0
 16 36  1  0  0  0  0
 16 17  1  0  0  0  0
 17 18  1  0  0  0  0
 18 25  2  0  0  0  0
 19 20  2  0  0  0  0
 19 18  1  0  0  0  0
 20 22  1  0  0  0  0
 21 20  1  0  0  0  0
 22 23  1  0  0  0  0
 22 24  2  0  0  0  0
 23 38  1  0  0  0  0
 24 39  1  0  0  0  0
 25 24  1  0  0  0  0
 25 26  1  0  0  0  0
 27  3  1  0  0  0  0
 30  5  1  0  0  0  0
 31  6  1  0  0  0  0
 35 14  1  0  0  0  0
 37 19  1  0  0  0  0
 40 26  1  0  0  0  0
M  END
