omegapdb_2byh_17.log
 OpenBabel09261812563D

 40 42  0  0  0  0  0  0  0  0999 V2000
    7.2785   -0.3861   -0.6197 O   0  0  0  0  0  0  0  0  0  0  0  0
    6.2170   -0.2216   -1.1897 C   0  0  0  0  0  0  0  0  0  0  0  0
    6.1720    0.1613   -2.6541 C   0  0  0  0  0  0  0  0  0  0  0  0
    4.9238   -0.3931   -0.4546 C   0  0  0  0  0  0  0  0  0  0  0  0
    3.6766   -0.2339   -1.0622 C   0  0  0  0  0  0  0  0  0  0  0  0
    2.5026   -0.4130   -0.3435 C   0  0  0  0  0  0  0  0  0  0  0  0
    2.5611   -0.7284    1.0167 C   0  0  0  0  0  0  0  0  0  0  0  0
    3.8079   -0.8908    1.6310 C   0  0  0  0  0  0  0  0  0  0  0  0
    4.9728   -0.7320    0.8998 C   0  0  0  0  0  0  0  0  0  0  0  0
    1.4056   -0.9484    1.7935 N   0  0  0  0  0  0  0  0  0  0  0  0
    0.1143   -0.4651    1.6629 C   0  0  0  0  0  0  0  0  0  0  0  0
   -0.8027   -1.0861    2.1784 O   0  0  0  0  0  0  0  0  0  0  0  0
   -0.0702    0.8394    0.9945 C   0  0  0  0  0  0  0  0  0  0  0  0
    0.8399    1.9241    1.0142 C   0  0  0  0  0  0  0  0  0  0  0  0
    0.3281    3.0105    0.4702 N   0  0  0  0  0  0  0  0  0  0  0  0
   -0.9008    2.6373    0.0874 N   0  0  0  0  0  0  0  0  0  0  0  0
   -1.2183    1.3561    0.3834 C   0  0  0  0  0  0  0  0  0  0  0  0
   -2.5195    0.7710    0.0054 C   0  0  0  0  0  0  0  0  0  0  0  0
   -2.6824   -0.6166   -0.0814 C   0  0  0  0  0  0  0  0  0  0  0  0
   -3.8819   -1.1986   -0.4464 C   0  0  0  0  0  0  0  0  0  0  0  0
   -4.0237   -2.9221   -0.5419 Cl  0  0  0  0  0  0  0  0  0  0  0  0
   -4.9901   -0.3988   -0.7420 C   0  0  0  0  0  0  0  0  0  0  0  0
   -6.1467   -1.0008   -1.0914 O   0  0  0  0  0  0  0  0  0  0  0  0
   -4.8510    0.9837   -0.6704 C   0  0  0  0  0  0  0  0  0  0  0  0
   -3.6373    1.5605   -0.3075 C   0  0  0  0  0  0  0  0  0  0  0  0
   -3.5151    2.9214   -0.2588 O   0  0  0  0  0  0  0  0  0  0  0  0
    7.1945    0.2461   -3.0248 H   0  0  0  0  0  0  0  0  0  0  0  0
    5.6539    1.1170   -2.7914 H   0  0  0  0  0  0  0  0  0  0  0  0
    5.6343   -0.5938   -3.2384 H   0  0  0  0  0  0  0  0  0  0  0  0
    3.6072    0.0158   -2.1177 H   0  0  0  0  0  0  0  0  0  0  0  0
    1.5411   -0.3094   -0.8353 H   0  0  0  0  0  0  0  0  0  0  0  0
    3.8515   -1.1329    2.6903 H   0  0  0  0  0  0  0  0  0  0  0  0
    5.9463   -0.8554    1.3653 H   0  0  0  0  0  0  0  0  0  0  0  0
    1.4407   -1.7307    2.4349 H   0  0  0  0  0  0  0  0  0  0  0  0
    1.8405    1.9451    1.4270 H   0  0  0  0  0  0  0  0  0  0  0  0
   -1.5247    3.3126   -0.3274 H   0  0  0  0  0  0  0  0  0  0  0  0
   -1.8564   -1.2699    0.1687 H   0  0  0  0  0  0  0  0  0  0  0  0
   -6.8227   -0.3304   -1.2522 H   0  0  0  0  0  0  0  0  0  0  0  0
   -5.7008    1.6230   -0.9083 H   0  0  0  0  0  0  0  0  0  0  0  0
   -4.3708    3.3297   -0.4406 H   0  0  0  0  0  0  0  0  0  0  0  0
  2  1  2  0  0  0  0
  2  4  1  0  0  0  0
  3  2  1  0  0  0  0
  4  9  1  0  0  0  0
  5  4  2  0  0  0  0
  5  6  1  0  0  0  0
  6  7  2  0  0  0  0
  7  8  1  0  0  0  0
  7 10  1  0  0  0  0
  8 32  1  0  0  0  0
  9 33  1  0  0  0  0
  9  8  2  0  0  0  0
 10 34  1  0  0  0  0
 11 10  1  0  0  0  0
 11 12  2  0  0  0  0
 13 14  1  0  0  0  0
 13 11  1  0  0  0  0
 14 35  1  0  0  0  0
 15 14  2  0  0  0  0
 16 17  1  0  0  0  0
 16 15  1  0  0  0  0
 17 13  2  0  0  0  0
 18 17  1  0  0  0  0
 19 18  1  0  0  0  0
 19 37  1  0  0  0  0
 20 19  2  0  0  0  0
 21 20  1  0  0  0  0
 22 24  2  0  0  0  0
 22 20  1  0  0  0  0
 23 22  1  0  0  0  0
 24 25  1  0  0  0  0
 25 26  1  0  0  0  0
 25 18  2  0  0  0  0
 27  3  1  0  0  0  0
 28  3  1  0  0  0  0
 29  3  1  0  0  0  0
 30  5  1  0  0  0  0
 31  6  1  0  0  0  0
 36 16  1  0  0  0  0
 38 23  1  0  0  0  0
 39 24  1  0  0  0  0
 40 26  1  0  0  0  0
M  END
