omegapdb_1xom_22.log
 OpenBabel09261812563D

 50 52  0  0  1  0  0  0  0  0999 V2000
    6.8259    0.5290   -0.3619 O   0  0  0  0  0  0  0  0  0  0  0  0
    5.8059   -0.3292   -0.1241 C   0  0  0  0  0  0  0  0  0  0  0  0
    5.8610   -1.4549   -0.5421 O   0  0  0  0  0  0  0  0  0  0  0  0
    4.6105    0.2652    0.6152 C   0  0  1  0  0  0  0  0  0  0  0  0
    3.7422    1.0468   -0.4061 C   0  0  0  0  0  0  0  0  0  0  0  0
    2.7529    0.1037   -1.0909 C   0  0  0  0  0  0  0  0  0  0  0  0
    1.6959   -0.4459   -0.0866 C   0  0  2  0  0  0  0  0  0  0  0  0
    2.3069   -0.4769    1.3481 C   0  0  0  0  0  0  0  0  0  0  0  0
    3.7902   -0.8342    1.3139 C   0  0  0  0  0  0  0  0  0  0  0  0
    1.3936   -1.8388   -0.4790 C   0  0  0  0  0  0  0  0  0  0  0  0
    1.1665   -2.9368   -0.7655 N   0  0  0  0  0  0  0  0  0  0  0  0
    0.3852    0.3494   -0.0559 C   0  0  0  0  0  0  0  0  0  0  0  0
    0.3111    1.6798   -0.4482 C   0  0  0  0  0  0  0  0  0  0  0  0
   -0.8796    2.4017   -0.3359 C   0  0  0  0  0  0  0  0  0  0  0  0
   -2.0270    1.7976    0.1668 C   0  0  0  0  0  0  0  0  0  0  0  0
   -3.2326    2.4037    0.2988 O   0  0  0  0  0  0  0  0  0  0  0  0
   -3.3273    3.7557   -0.0936 C   0  0  0  0  0  0  0  0  0  0  0  0
   -1.9612    0.4500    0.5721 C   0  0  0  0  0  0  0  0  0  0  0  0
   -0.7707   -0.2467    0.4634 C   0  0  0  0  0  0  0  0  0  0  0  0
   -3.0720   -0.1416    1.1066 O   0  0  0  0  0  0  0  0  0  0  0  0
   -3.7552   -1.0430    0.2369 C   0  0  0  0  0  0  0  0  0  0  0  0
   -4.5190   -0.3717   -0.9045 C   0  0  0  0  0  0  0  0  0  0  0  0
   -5.4912   -1.4704   -1.3512 C   0  0  0  0  0  0  0  0  0  0  0  0
   -5.8361   -2.2630   -0.0601 C   0  0  0  0  0  0  0  0  0  0  0  0
   -4.8463   -1.7700    1.0169 C   0  0  0  0  0  0  0  0  0  0  0  0
    6.6461    1.3817    0.0573 H   0  0  0  0  0  0  0  0  0  0  0  0
    4.9864    0.9764    1.3644 H   0  0  0  0  0  0  0  0  0  0  0  0
    4.3773    1.5317   -1.1574 H   0  0  0  0  0  0  0  0  0  0  0  0
    3.2085    1.8495    0.1160 H   0  0  0  0  0  0  0  0  0  0  0  0
    3.3173   -0.7352   -1.5132 H   0  0  0  0  0  0  0  0  0  0  0  0
    2.2474    0.5910   -1.9297 H   0  0  0  0  0  0  0  0  0  0  0  0
    1.7454   -1.1850    1.9656 H   0  0  0  0  0  0  0  0  0  0  0  0
    2.1604    0.5124    1.7981 H   0  0  0  0  0  0  0  0  0  0  0  0
    4.1673   -0.9932    2.3295 H   0  0  0  0  0  0  0  0  0  0  0  0
    3.9349   -1.7772    0.7745 H   0  0  0  0  0  0  0  0  0  0  0  0
    1.1796    2.1894   -0.8558 H   0  0  0  0  0  0  0  0  0  0  0  0
   -0.8976    3.4375   -0.6585 H   0  0  0  0  0  0  0  0  0  0  0  0
   -2.6574    4.3930    0.4982 H   0  0  0  0  0  0  0  0  0  0  0  0
   -4.3612    4.0502    0.0920 H   0  0  0  0  0  0  0  0  0  0  0  0
   -3.0997    3.8833   -1.1600 H   0  0  0  0  0  0  0  0  0  0  0  0
   -0.7612   -1.2857    0.7870 H   0  0  0  0  0  0  0  0  0  0  0  0
   -3.0298   -1.7630   -0.1742 H   0  0  0  0  0  0  0  0  0  0  0  0
   -3.8672   -0.0123   -1.7079 H   0  0  0  0  0  0  0  0  0  0  0  0
   -5.0522    0.4920   -0.4897 H   0  0  0  0  0  0  0  0  0  0  0  0
   -5.0001   -2.1292   -2.0769 H   0  0  0  0  0  0  0  0  0  0  0  0
   -6.3793   -1.0631   -1.8437 H   0  0  0  0  0  0  0  0  0  0  0  0
   -6.8704   -2.0901    0.2528 H   0  0  0  0  0  0  0  0  0  0  0  0
   -5.7359   -3.3399   -0.2288 H   0  0  0  0  0  0  0  0  0  0  0  0
   -4.4493   -2.5723    1.6456 H   0  0  0  0  0  0  0  0  0  0  0  0
   -5.3178   -1.0345    1.6790 H   0  0  0  0  0  0  0  0  0  0  0  0
  1  2  1  0  0  0  0
  1 26  1  0  0  0  0
  2  4  1  0  0  0  0
  3  2  2  0  0  0  0
  4  9  1  0  0  0  0
  4 27  1  1  0  0  0
  5 29  1  0  0  0  0
  5  4  1  0  0  0  0
  6  5  1  0  0  0  0
  6  7  1  0  0  0  0
  7 10  1  6  0  0  0
  7 12  1  0  0  0  0
  7  8  1  0  0  0  0
  8 33  1  0  0  0  0
  8 32  1  0  0  0  0
  9  8  1  0  0  0  0
  9 34  1  0  0  0  0
 11 10  3  0  0  0  0
 12 19  2  0  0  0  0
 13 14  2  0  0  0  0
 13 12  1  0  0  0  0
 14 15  1  0  0  0  0
 15 16  1  0  0  0  0
 15 18  2  0  0  0  0
 17 39  1  0  0  0  0
 17 16  1  0  0  0  0
 17 38  1  0  0  0  0
 18 20  1  0  0  0  0
 19 18  1  0  0  0  0
 19 41  1  0  0  0  0
 21 25  1  0  0  0  0
 21 20  1  0  0  0  0
 22 44  1  0  0  0  0
 22 21  1  0  0  0  0
 23 22  1  0  0  0  0
 23 24  1  0  0  0  0
 24 47  1  0  0  0  0
 24 25  1  0  0  0  0
 25 49  1  0  0  0  0
 25 50  1  0  0  0  0
 28  5  1  0  0  0  0
 30  6  1  0  0  0  0
 31  6  1  0  0  0  0
 35  9  1  0  0  0  0
 36 13  1  0  0  0  0
 37 14  1  0  0  0  0
 40 17  1  0  0  0  0
 42 21  1  0  0  0  0
 43 22  1  0  0  0  0
 45 23  1  0  0  0  0
 46 23  1  0  0  0  0
 48 24  1  0  0  0  0
M  END
