omegapdb_2byh_10.log
 OpenBabel09261812563D

 40 42  0  0  0  0  0  0  0  0999 V2000
    6.7568   -2.4455    0.0992 O   0  0  0  0  0  0  0  0  0  0  0  0
    6.6586   -1.2542    0.3226 C   0  0  0  0  0  0  0  0  0  0  0  0
    7.8705   -0.4382    0.7239 C   0  0  0  0  0  0  0  0  0  0  0  0
    5.3376   -0.5616    0.2041 C   0  0  0  0  0  0  0  0  0  0  0  0
    5.1688    0.8010    0.4601 C   0  0  0  0  0  0  0  0  0  0  0  0
    3.9214    1.3902    0.3353 C   0  0  0  0  0  0  0  0  0  0  0  0
    2.8108    0.6289   -0.0485 C   0  0  0  0  0  0  0  0  0  0  0  0
    2.9670   -0.7382   -0.3071 C   0  0  0  0  0  0  0  0  0  0  0  0
    4.2233   -1.3111   -0.1779 C   0  0  0  0  0  0  0  0  0  0  0  0
    1.5837    1.3062   -0.1562 N   0  0  0  0  0  0  0  0  0  0  0  0
    0.3500    0.8038   -0.5048 C   0  0  0  0  0  0  0  0  0  0  0  0
    0.1408   -0.3765   -0.7349 O   0  0  0  0  0  0  0  0  0  0  0  0
   -0.7029    1.8443   -0.5872 C   0  0  0  0  0  0  0  0  0  0  0  0
   -0.5474    3.2126   -0.9227 C   0  0  0  0  0  0  0  0  0  0  0  0
   -1.6942    3.8645   -0.9019 N   0  0  0  0  0  0  0  0  0  0  0  0
   -2.5901    2.9335   -0.5426 N   0  0  0  0  0  0  0  0  0  0  0  0
   -2.0670    1.6927   -0.3546 C   0  0  0  0  0  0  0  0  0  0  0  0
   -2.9321    0.5658    0.0377 C   0  0  0  0  0  0  0  0  0  0  0  0
   -2.8179   -0.6824   -0.5798 C   0  0  0  0  0  0  0  0  0  0  0  0
   -3.6879   -1.7074   -0.2605 C   0  0  0  0  0  0  0  0  0  0  0  0
   -3.5476   -3.2600   -1.0423 Cl  0  0  0  0  0  0  0  0  0  0  0  0
   -4.7016   -1.5224    0.6903 C   0  0  0  0  0  0  0  0  0  0  0  0
   -5.5758   -2.4877    1.0309 O   0  0  0  0  0  0  0  0  0  0  0  0
   -4.8097   -0.2903    1.3264 C   0  0  0  0  0  0  0  0  0  0  0  0
   -3.9348    0.7391    1.0113 C   0  0  0  0  0  0  0  0  0  0  0  0
   -4.1161    1.9158    1.6779 O   0  0  0  0  0  0  0  0  0  0  0  0
    7.7220    0.0274    1.7046 H   0  0  0  0  0  0  0  0  0  0  0  0
    8.0566    0.3638    0.0006 H   0  0  0  0  0  0  0  0  0  0  0  0
    8.7377   -1.0989    0.7634 H   0  0  0  0  0  0  0  0  0  0  0  0
    6.0126    1.4172    0.7596 H   0  0  0  0  0  0  0  0  0  0  0  0
    3.8036    2.4538    0.5354 H   0  0  0  0  0  0  0  0  0  0  0  0
    2.1108   -1.3310   -0.5981 H   0  0  0  0  0  0  0  0  0  0  0  0
    4.3636   -2.3704   -0.3730 H   0  0  0  0  0  0  0  0  0  0  0  0
    1.6057    2.2784    0.1145 H   0  0  0  0  0  0  0  0  0  0  0  0
    0.3572    3.7365   -1.2098 H   0  0  0  0  0  0  0  0  0  0  0  0
   -3.5709    3.1761   -0.5223 H   0  0  0  0  0  0  0  0  0  0  0  0
   -2.0280   -0.8473   -1.3035 H   0  0  0  0  0  0  0  0  0  0  0  0
   -5.3735   -3.2903    0.5259 H   0  0  0  0  0  0  0  0  0  0  0  0
   -5.5718   -0.1410    2.0832 H   0  0  0  0  0  0  0  0  0  0  0  0
   -3.2987    2.4325    1.6459 H   0  0  0  0  0  0  0  0  0  0  0  0
  1  2  2  0  0  0  0
  2  3  1  0  0  0  0
  3 29  1  0  0  0  0
  3 27  1  0  0  0  0
  4  2  1  0  0  0  0
  4  5  2  0  0  0  0
  5 30  1  0  0  0  0
  6  5  1  0  0  0  0
  6 31  1  0  0  0  0
  7  6  2  0  0  0  0
  8  9  2  0  0  0  0
  8  7  1  0  0  0  0
  9  4  1  0  0  0  0
 10  7  1  0  0  0  0
 10 34  1  0  0  0  0
 11 10  1  0  0  0  0
 12 11  2  0  0  0  0
 13 11  1  0  0  0  0
 13 17  2  0  0  0  0
 14 15  2  0  0  0  0
 14 13  1  0  0  0  0
 15 16  1  0  0  0  0
 16 36  1  0  0  0  0
 16 17  1  0  0  0  0
 17 18  1  0  0  0  0
 18 25  2  0  0  0  0
 19 20  2  0  0  0  0
 19 18  1  0  0  0  0
 20 22  1  0  0  0  0
 21 20  1  0  0  0  0
 22 23  1  0  0  0  0
 22 24  2  0  0  0  0
 24 39  1  0  0  0  0
 25 24  1  0  0  0  0
 25 26  1  0  0  0  0
 28  3  1  0  0  0  0
 32  8  1  0  0  0  0
 33  9  1  0  0  0  0
 35 14  1  0  0  0  0
 37 19  1  0  0  0  0
 38 23  1  0  0  0  0
 40 26  1  0  0  0  0
M  END
