omegapdb_1z1r_16.log
 OpenBabel09261812563D

 66 68  0  0  1  0  0  0  0  0999 V2000
    0.3302    0.8266    0.2571 C   0  0  2  0  0  0  0  0  0  0  0  0
    0.6574   -0.1719   -0.8723 C   0  0  0  0  0  0  0  0  0  0  0  0
   -0.3988   -1.2429   -1.0039 C   0  0  0  0  0  0  0  0  0  0  0  0
   -0.5430   -2.2297   -0.0254 C   0  0  0  0  0  0  0  0  0  0  0  0
   -1.5812   -3.1506   -0.0827 C   0  0  0  0  0  0  0  0  0  0  0  0
   -2.4966   -3.0988   -1.1310 C   0  0  0  0  0  0  0  0  0  0  0  0
   -2.3262   -2.1711   -2.1561 C   0  0  0  0  0  0  0  0  0  0  0  0
   -1.2913   -1.2443   -2.0768 C   0  0  0  0  0  0  0  0  0  0  0  0
   -3.5608   -3.9648   -1.1048 O   0  0  0  0  0  0  0  0  0  0  0  0
   -4.8506   -3.3549   -1.0327 C   0  0  0  0  0  0  0  0  0  0  0  0
   -5.0942   -2.5320    0.2333 C   0  0  0  0  0  0  0  0  0  0  0  0
   -4.5099   -1.1201    0.2041 C   0  0  0  0  0  0  0  0  0  0  0  0
   -4.8571   -0.3251    1.4480 C   0  0  0  0  0  0  0  0  0  0  0  0
   -5.4988   -0.7870    2.3732 O   0  0  0  0  0  0  0  0  0  0  0  0
   -4.4322    0.9899    1.4779 N   0  0  0  0  0  0  0  0  0  0  0  0
   -3.4106    1.5482    0.6196 C   0  0  2  0  0  0  0  0  0  0  0  0
   -2.0031    1.0277    1.0012 C   0  0  0  0  0  0  0  0  0  0  0  0
   -1.8291    0.3895    2.0285 O   0  0  0  0  0  0  0  0  0  0  0  0
   -1.0204    1.3435    0.1229 N   0  0  0  0  0  0  0  0  0  0  0  0
   -3.4986    3.0804    0.6883 C   0  0  0  0  0  0  0  0  0  0  0  0
   -2.9994    3.7867   -0.5646 C   0  0  0  0  0  0  0  0  0  0  0  0
   -2.5044    3.2022   -1.5188 O   0  0  0  0  0  0  0  0  0  0  0  0
   -3.1458    5.1359   -0.5510 N   0  0  0  0  0  0  0  0  0  0  0  0
    1.2956    2.0145    0.3433 C   0  0  2  0  0  0  0  0  0  0  0  0
    1.2099    2.7227   -0.8908 O   0  0  0  0  0  0  0  0  0  0  0  0
    2.7571    1.6686    0.6550 C   0  0  0  0  0  0  0  0  0  0  0  0
    3.4118    1.1618   -0.5458 N   0  0  0  0  0  0  0  0  0  0  0  0
    5.0601    0.9435   -0.4942 S   0  0  0  0  0  0  0  0  0  0  0  0
    5.4776    0.8831   -1.8853 O   0  0  0  0  0  0  0  0  0  0  0  0
    5.6754    1.8867    0.4313 O   0  0  0  0  0  0  0  0  0  0  0  0
    5.1861   -0.6702    0.2373 C   0  0  0  0  0  0  0  0  0  0  0  0
    5.7815   -0.8072    1.4847 C   0  0  0  0  0  0  0  0  0  0  0  0
    5.8829   -2.0778    2.0464 C   0  0  0  0  0  0  0  0  0  0  0  0
    5.3922   -3.1833    1.3599 C   0  0  0  0  0  0  0  0  0  0  0  0
    4.8004   -3.0311    0.1056 C   0  0  0  0  0  0  0  0  0  0  0  0
    4.6964   -1.7699   -0.4650 C   0  0  0  0  0  0  0  0  0  0  0  0
    0.3512    0.3058    1.2202 H   0  0  0  0  0  0  0  0  0  0  0  0
    0.7505    0.3782   -1.8163 H   0  0  0  0  0  0  0  0  0  0  0  0
    1.6383   -0.6164   -0.6704 H   0  0  0  0  0  0  0  0  0  0  0  0
    0.1473   -2.2575    0.8160 H   0  0  0  0  0  0  0  0  0  0  0  0
   -1.7237   -3.8919    0.6983 H   0  0  0  0  0  0  0  0  0  0  0  0
   -3.0213   -2.1536   -2.9917 H   0  0  0  0  0  0  0  0  0  0  0  0
   -1.1828   -0.4975   -2.8616 H   0  0  0  0  0  0  0  0  0  0  0  0
   -5.5431   -4.2004   -1.0616 H   0  0  0  0  0  0  0  0  0  0  0  0
   -5.0339   -2.7456   -1.9308 H   0  0  0  0  0  0  0  0  0  0  0  0
   -6.1767   -2.4564    0.3888 H   0  0  0  0  0  0  0  0  0  0  0  0
   -4.7034   -3.0791    1.0979 H   0  0  0  0  0  0  0  0  0  0  0  0
   -4.8657   -0.5799   -0.6849 H   0  0  0  0  0  0  0  0  0  0  0  0
   -3.4182   -1.1483    0.1286 H   0  0  0  0  0  0  0  0  0  0  0  0
   -4.4523    1.3492    2.4249 H   0  0  0  0  0  0  0  0  0  0  0  0
   -3.6115    1.2528   -0.4152 H   0  0  0  0  0  0  0  0  0  0  0  0
   -1.2700    1.8471   -0.7238 H   0  0  0  0  0  0  0  0  0  0  0  0
   -4.5529    3.3481    0.8298 H   0  0  0  0  0  0  0  0  0  0  0  0
   -2.9538    3.4660    1.5603 H   0  0  0  0  0  0  0  0  0  0  0  0
   -2.9036    5.6457   -1.3872 H   0  0  0  0  0  0  0  0  0  0  0  0
   -3.6552    5.6141    0.1746 H   0  0  0  0  0  0  0  0  0  0  0  0
    0.9275    2.6460    1.1642 H   0  0  0  0  0  0  0  0  0  0  0  0
    1.4441    3.6456   -0.7346 H   0  0  0  0  0  0  0  0  0  0  0  0
    3.2714    2.5617    1.0365 H   0  0  0  0  0  0  0  0  0  0  0  0
    2.8002    0.9039    1.4406 H   0  0  0  0  0  0  0  0  0  0  0  0
    3.1589    1.6916   -1.3777 H   0  0  0  0  0  0  0  0  0  0  0  0
    6.1607    0.0738    1.9937 H   0  0  0  0  0  0  0  0  0  0  0  0
    6.3474   -2.2016    3.0207 H   0  0  0  0  0  0  0  0  0  0  0  0
    5.4723   -4.1729    1.8019 H   0  0  0  0  0  0  0  0  0  0  0  0
    4.4223   -3.8987   -0.4278 H   0  0  0  0  0  0  0  0  0  0  0  0
    4.2458   -1.6318   -1.4441 H   0  0  0  0  0  0  0  0  0  0  0  0
  1 24  1  0  0  0  0
  1 37  1  1  0  0  0
  2 39  1  0  0  0  0
  2  1  1  0  0  0  0
  3  2  1  0  0  0  0
  3  4  2  0  0  0  0
  4 40  1  0  0  0  0
  5  4  1  0  0  0  0
  5 41  1  0  0  0  0
  6  9  1  0  0  0  0
  6  5  2  0  0  0  0
  7  8  2  0  0  0  0
  7  6  1  0  0  0  0
  8  3  1  0  0  0  0
  9 10  1  0  0  0  0
 10 11  1  0  0  0  0
 11 46  1  0  0  0  0
 11 47  1  0  0  0  0
 12 11  1  0  0  0  0
 12 13  1  0  0  0  0
 13 15  1  0  0  0  0
 13 14  2  0  0  0  0
 15 50  1  0  0  0  0
 16 51  1  6  0  0  0
 16 20  1  0  0  0  0
 16 17  1  0  0  0  0
 16 15  1  0  0  0  0
 17 18  2  0  0  0  0
 19  1  1  0  0  0  0
 19 17  1  0  0  0  0
 20 53  1  0  0  0  0
 20 54  1  0  0  0  0
 21 23  1  0  0  0  0
 21 20  1  0  0  0  0
 22 21  2  0  0  0  0
 23 56  1  0  0  0  0
 24 26  1  0  0  0  0
 24 57  1  1  0  0  0
 25 58  1  0  0  0  0
 25 24  1  0  0  0  0
 26 59  1  0  0  0  0
 26 60  1  0  0  0  0
 27 28  1  0  0  0  0
 27 26  1  0  0  0  0
 28 31  1  0  0  0  0
 28 30  2  0  0  0  0
 29 28  2  0  0  0  0
 31 32  2  0  0  0  0
 32 62  1  0  0  0  0
 32 33  1  0  0  0  0
 33 63  1  0  0  0  0
 34 64  1  0  0  0  0
 34 33  2  0  0  0  0
 35 34  1  0  0  0  0
 36 35  2  0  0  0  0
 36 31  1  0  0  0  0
 38  2  1  0  0  0  0
 42  7  1  0  0  0  0
 43  8  1  0  0  0  0
 44 10  1  0  0  0  0
 45 10  1  0  0  0  0
 48 12  1  0  0  0  0
 49 12  1  0  0  0  0
 52 19  1  0  0  0  0
 55 23  1  0  0  0  0
 61 27  1  0  0  0  0
 65 35  1  0  0  0  0
 66 36  1  0  0  0  0
M  END
