omegapdb_2byh_19.log
 OpenBabel09261812563D

 40 42  0  0  0  0  0  0  0  0999 V2000
    7.2740   -0.8509    0.1357 O   0  0  0  0  0  0  0  0  0  0  0  0
    6.1835   -1.3788    0.2295 C   0  0  0  0  0  0  0  0  0  0  0  0
    6.0372   -2.8842    0.1855 C   0  0  0  0  0  0  0  0  0  0  0  0
    4.9484   -0.5412    0.3900 C   0  0  0  0  0  0  0  0  0  0  0  0
    5.0939    0.8474    0.4125 C   0  0  0  0  0  0  0  0  0  0  0  0
    3.9869    1.6704    0.5453 C   0  0  0  0  0  0  0  0  0  0  0  0
    2.7132    1.1120    0.6745 C   0  0  0  0  0  0  0  0  0  0  0  0
    2.5589   -0.2746    0.6783 C   0  0  0  0  0  0  0  0  0  0  0  0
    3.6713   -1.0908    0.5214 C   0  0  0  0  0  0  0  0  0  0  0  0
    1.6110    1.9842    0.8539 N   0  0  0  0  0  0  0  0  0  0  0  0
    0.3332    1.9050    0.3744 C   0  0  0  0  0  0  0  0  0  0  0  0
   -0.5321    2.6149    0.8940 O   0  0  0  0  0  0  0  0  0  0  0  0
    0.0480    1.0386   -0.7771 C   0  0  0  0  0  0  0  0  0  0  0  0
    0.8954    0.7062   -1.8654 C   0  0  0  0  0  0  0  0  0  0  0  0
    0.2827   -0.0560   -2.7482 N   0  0  0  0  0  0  0  0  0  0  0  0
   -0.9461   -0.2267   -2.2356 N   0  0  0  0  0  0  0  0  0  0  0  0
   -1.1641    0.4112   -1.0638 C   0  0  0  0  0  0  0  0  0  0  0  0
   -2.4689    0.2456   -0.3932 C   0  0  0  0  0  0  0  0  0  0  0  0
   -2.9597   -1.0563   -0.2273 C   0  0  0  0  0  0  0  0  0  0  0  0
   -4.2325   -1.3027    0.2512 C   0  0  0  0  0  0  0  0  0  0  0  0
   -4.7987   -2.9300    0.4467 Cl  0  0  0  0  0  0  0  0  0  0  0  0
   -5.0695   -0.2261    0.5753 C   0  0  0  0  0  0  0  0  0  0  0  0
   -6.3105   -0.4984    1.0334 O   0  0  0  0  0  0  0  0  0  0  0  0
   -4.5915    1.0696    0.4281 C   0  0  0  0  0  0  0  0  0  0  0  0
   -3.3027    1.3262   -0.0435 C   0  0  0  0  0  0  0  0  0  0  0  0
   -2.9494    2.6128   -0.1892 O   0  0  0  0  0  0  0  0  0  0  0  0
    5.3900   -3.1893   -0.6443 H   0  0  0  0  0  0  0  0  0  0  0  0
    7.0254   -3.3280    0.0575 H   0  0  0  0  0  0  0  0  0  0  0  0
    5.5872   -3.2595    1.1116 H   0  0  0  0  0  0  0  0  0  0  0  0
    6.0920    1.2630    0.3105 H   0  0  0  0  0  0  0  0  0  0  0  0
    4.0986    2.7520    0.5408 H   0  0  0  0  0  0  0  0  0  0  0  0
    1.5723   -0.7091    0.8050 H   0  0  0  0  0  0  0  0  0  0  0  0
    3.5324   -2.1685    0.5193 H   0  0  0  0  0  0  0  0  0  0  0  0
    1.7182    2.7234    1.5375 H   0  0  0  0  0  0  0  0  0  0  0  0
    1.9216    1.0086   -2.0314 H   0  0  0  0  0  0  0  0  0  0  0  0
   -1.6307   -0.7562   -2.7556 H   0  0  0  0  0  0  0  0  0  0  0  0
   -2.3258   -1.9039   -0.4760 H   0  0  0  0  0  0  0  0  0  0  0  0
   -6.7656    0.3336    1.2175 H   0  0  0  0  0  0  0  0  0  0  0  0
   -5.2126    1.9237    0.6865 H   0  0  0  0  0  0  0  0  0  0  0  0
   -2.0022    2.7177    0.0721 H   0  0  0  0  0  0  0  0  0  0  0  0
  1  2  2  0  0  0  0
  2  4  1  0  0  0  0
  3  2  1  0  0  0  0
  3 29  1  0  0  0  0
  4  5  2  0  0  0  0
  4  9  1  0  0  0  0
  5  6  1  0  0  0  0
  6  7  2  0  0  0  0
  7  8  1  0  0  0  0
  7 10  1  0  0  0  0
  8 32  1  0  0  0  0
  9  8  2  0  0  0  0
 10 34  1  0  0  0  0
 11 10  1  0  0  0  0
 11 12  2  0  0  0  0
 13 11  1  0  0  0  0
 14 13  1  0  0  0  0
 15 16  1  0  0  0  0
 15 14  2  0  0  0  0
 16 17  1  0  0  0  0
 17 13  2  0  0  0  0
 17 18  1  0  0  0  0
 18 19  2  0  0  0  0
 18 25  1  0  0  0  0
 19 20  1  0  0  0  0
 20 21  1  0  0  0  0
 20 22  2  0  0  0  0
 22 23  1  0  0  0  0
 23 38  1  0  0  0  0
 24 22  1  0  0  0  0
 24 39  1  0  0  0  0
 25 24  2  0  0  0  0
 26 25  1  0  0  0  0
 26 40  1  0  0  0  0
 27  3  1  0  0  0  0
 28  3  1  0  0  0  0
 30  5  1  0  0  0  0
 31  6  1  0  0  0  0
 33  9  1  0  0  0  0
 35 14  1  0  0  0  0
 36 16  1  0  0  0  0
 37 19  1  0  0  0  0
M  END
