omegapdb_1gs5_06.log
 OpenBabel09261812563D

 24 23  0  0  1  0  0  0  0  0999 V2000
    1.1767   -0.1807    0.6856 C   0  0  2  0  0  0  0  0  0  0  0  0
    2.2201   -1.0090   -0.0516 C   0  0  0  0  0  0  0  0  0  0  0  0
    2.8867   -0.6069   -0.9771 O   0  0  0  0  0  0  0  0  0  0  0  0
    2.3418   -2.2375    0.4623 O   0  0  0  0  0  0  0  0  0  0  0  0
   -0.1739   -0.9095    0.8015 C   0  0  0  0  0  0  0  0  0  0  0  0
   -0.9484   -1.0075   -0.5209 C   0  0  0  0  0  0  0  0  0  0  0  0
   -2.4580   -0.9715   -0.3163 C   0  0  0  0  0  0  0  0  0  0  0  0
   -3.1964   -1.8507   -0.6798 O   0  0  0  0  0  0  0  0  0  0  0  0
   -2.9323    0.1222    0.3006 O   0  0  0  0  0  0  0  0  0  0  0  0
    1.1327    1.1004    0.0036 N   0  0  0  0  0  0  0  0  0  0  0  0
    0.1799    2.0487    0.1486 C   0  0  0  0  0  0  0  0  0  0  0  0
   -0.8131    1.9087    0.8624 O   0  0  0  0  0  0  0  0  0  0  0  0
    0.3983    3.3226   -0.6370 C   0  0  0  0  0  0  0  0  0  0  0  0
    1.5618   -0.0464    1.7073 H   0  0  0  0  0  0  0  0  0  0  0  0
    3.0335   -2.6892   -0.0497 H   0  0  0  0  0  0  0  0  0  0  0  0
    0.0230   -1.9082    1.2012 H   0  0  0  0  0  0  0  0  0  0  0  0
   -0.7616   -0.3774    1.5495 H   0  0  0  0  0  0  0  0  0  0  0  0
   -0.7153   -1.9301   -1.0571 H   0  0  0  0  0  0  0  0  0  0  0  0
   -0.6824   -0.1688   -1.1770 H   0  0  0  0  0  0  0  0  0  0  0  0
   -2.2199    0.7622    0.5080 H   0  0  0  0  0  0  0  0  0  0  0  0
    1.8887    1.2514   -0.6522 H   0  0  0  0  0  0  0  0  0  0  0  0
    1.3268    3.3303   -1.2138 H   0  0  0  0  0  0  0  0  0  0  0  0
   -0.4490    3.4668   -1.3129 H   0  0  0  0  0  0  0  0  0  0  0  0
    0.4032    4.1610    0.0645 H   0  0  0  0  0  0  0  0  0  0  0  0
  1  5  1  0  0  0  0
  1 14  1  1  0  0  0
  2  4  1  0  0  0  0
  2  1  1  0  0  0  0
  3  2  2  0  0  0  0
  5 16  1  0  0  0  0
  5 17  1  0  0  0  0
  6  7  1  0  0  0  0
  6  5  1  0  0  0  0
  7  9  1  0  0  0  0
  8  7  2  0  0  0  0
  9 20  1  0  0  0  0
 10 11  1  0  0  0  0
 10  1  1  0  0  0  0
 11 12  2  0  0  0  0
 13 24  1  0  0  0  0
 13 11  1  0  0  0  0
 15  4  1  0  0  0  0
 18  6  1  0  0  0  0
 19  6  1  0  0  0  0
 21 10  1  0  0  0  0
 22 13  1  0  0  0  0
 23 13  1  0  0  0  0
M  END
