omegapdb_1xom_06.log
 OpenBabel09261812563D

 50 52  0  0  1  0  0  0  0  0999 V2000
    6.0692    0.3846    0.1222 O   0  0  0  0  0  0  0  0  0  0  0  0
    5.2385    1.4205   -0.1192 C   0  0  0  0  0  0  0  0  0  0  0  0
    5.6451    2.5449   -0.2903 O   0  0  0  0  0  0  0  0  0  0  0  0
    3.7888    0.9942   -0.1448 C   0  0  1  0  0  0  0  0  0  0  0  0
    3.5254   -0.0216   -1.2676 C   0  0  0  0  0  0  0  0  0  0  0  0
    2.0512   -0.4253   -1.3038 C   0  0  0  0  0  0  0  0  0  0  0  0
    1.5500   -0.9911    0.0502 C   0  0  2  0  0  0  0  0  0  0  0  0
    1.8767    0.0154    1.1840 C   0  0  0  0  0  0  0  0  0  0  0  0
    3.3515    0.4175    1.2111 C   0  0  0  0  0  0  0  0  0  0  0  0
    2.3101   -2.2292    0.3237 C   0  0  0  0  0  0  0  0  0  0  0  0
    2.9367   -3.1787    0.5358 N   0  0  0  0  0  0  0  0  0  0  0  0
    0.0504   -1.3000   -0.0013 C   0  0  0  0  0  0  0  0  0  0  0  0
   -0.4566   -2.5762    0.1621 C   0  0  0  0  0  0  0  0  0  0  0  0
   -1.8370   -2.8076    0.1112 C   0  0  0  0  0  0  0  0  0  0  0  0
   -2.7223   -1.7655   -0.1010 C   0  0  0  0  0  0  0  0  0  0  0  0
   -4.0716   -1.8822   -0.1651 O   0  0  0  0  0  0  0  0  0  0  0  0
   -4.6153   -3.1743   -0.0098 C   0  0  0  0  0  0  0  0  0  0  0  0
   -2.2164   -0.4530   -0.2705 C   0  0  0  0  0  0  0  0  0  0  0  0
   -0.8486   -0.2403   -0.2202 C   0  0  0  0  0  0  0  0  0  0  0  0
   -3.1566    0.4995   -0.4869 O   0  0  0  0  0  0  0  0  0  0  0  0
   -2.7553    1.8661   -0.6100 C   0  0  0  0  0  0  0  0  0  0  0  0
   -4.0006    2.6399   -1.0750 C   0  0  0  0  0  0  0  0  0  0  0  0
   -4.6037    3.2999    0.1893 C   0  0  0  0  0  0  0  0  0  0  0  0
   -3.8055    2.7196    1.3673 C   0  0  0  0  0  0  0  0  0  0  0  0
   -2.4229    2.4588    0.7639 C   0  0  0  0  0  0  0  0  0  0  0  0
    6.9679    0.7535    0.1190 H   0  0  0  0  0  0  0  0  0  0  0  0
    3.2212    1.9108   -0.3472 H   0  0  0  0  0  0  0  0  0  0  0  0
    4.1552   -0.9057   -1.1101 H   0  0  0  0  0  0  0  0  0  0  0  0
    3.8083    0.4068   -2.2363 H   0  0  0  0  0  0  0  0  0  0  0  0
    1.8733   -1.1670   -2.0901 H   0  0  0  0  0  0  0  0  0  0  0  0
    1.4356    0.4498   -1.5469 H   0  0  0  0  0  0  0  0  0  0  0  0
    1.5768   -0.4170    2.1447 H   0  0  0  0  0  0  0  0  0  0  0  0
    1.2569    0.9073    1.0287 H   0  0  0  0  0  0  0  0  0  0  0  0
    3.9752   -0.4520    1.4525 H   0  0  0  0  0  0  0  0  0  0  0  0
    3.5112    1.1580    2.0038 H   0  0  0  0  0  0  0  0  0  0  0  0
    0.2096   -3.4162    0.3362 H   0  0  0  0  0  0  0  0  0  0  0  0
   -2.2037   -3.8200    0.2437 H   0  0  0  0  0  0  0  0  0  0  0  0
   -4.2573   -3.8580   -0.7907 H   0  0  0  0  0  0  0  0  0  0  0  0
   -4.3758   -3.5964    0.9751 H   0  0  0  0  0  0  0  0  0  0  0  0
   -5.6964   -3.0581   -0.0999 H   0  0  0  0  0  0  0  0  0  0  0  0
   -0.4668    0.7674   -0.3464 H   0  0  0  0  0  0  0  0  0  0  0  0
   -1.9326    1.9339   -1.3336 H   0  0  0  0  0  0  0  0  0  0  0  0
   -3.7233    3.3895   -1.8229 H   0  0  0  0  0  0  0  0  0  0  0  0
   -4.6892    1.9389   -1.5540 H   0  0  0  0  0  0  0  0  0  0  0  0
   -4.4666    4.3869    0.1479 H   0  0  0  0  0  0  0  0  0  0  0  0
   -5.6780    3.1159    0.2830 H   0  0  0  0  0  0  0  0  0  0  0  0
   -4.2425    1.7680    1.6899 H   0  0  0  0  0  0  0  0  0  0  0  0
   -3.7761    3.3870    2.2342 H   0  0  0  0  0  0  0  0  0  0  0  0
   -1.7940    1.8000    1.3711 H   0  0  0  0  0  0  0  0  0  0  0  0
   -1.8851    3.4061    0.6221 H   0  0  0  0  0  0  0  0  0  0  0  0
  2  1  1  0  0  0  0
  3  2  2  0  0  0  0
  4 27  1  6  0  0  0
  4  2  1  0  0  0  0
  4  9  1  0  0  0  0
  5 28  1  0  0  0  0
  5  4  1  0  0  0  0
  6  5  1  0  0  0  0
  6  7  1  0  0  0  0
  7 10  1  1  0  0  0
  7  8  1  0  0  0  0
  8  9  1  0  0  0  0
  8 32  1  0  0  0  0
  9 34  1  0  0  0  0
  9 35  1  0  0  0  0
 10 11  3  0  0  0  0
 12  7  1  0  0  0  0
 12 13  2  0  0  0  0
 13 36  1  0  0  0  0
 14 13  1  0  0  0  0
 14 37  1  0  0  0  0
 15 14  2  0  0  0  0
 16 15  1  0  0  0  0
 16 17  1  0  0  0  0
 17 39  1  0  0  0  0
 18 19  2  0  0  0  0
 18 15  1  0  0  0  0
 19 12  1  0  0  0  0
 20 18  1  0  0  0  0
 21 20  1  0  0  0  0
 21 25  1  0  0  0  0
 22 21  1  0  0  0  0
 22 23  1  0  0  0  0
 23 46  1  0  0  0  0
 23 24  1  0  0  0  0
 24 47  1  0  0  0  0
 24 48  1  0  0  0  0
 25 24  1  0  0  0  0
 25 49  1  0  0  0  0
 26  1  1  0  0  0  0
 29  5  1  0  0  0  0
 30  6  1  0  0  0  0
 31  6  1  0  0  0  0
 33  8  1  0  0  0  0
 38 17  1  0  0  0  0
 40 17  1  0  0  0  0
 41 19  1  0  0  0  0
 42 21  1  0  0  0  0
 43 22  1  0  0  0  0
 44 22  1  0  0  0  0
 45 23  1  0  0  0  0
 50 25  1  0  0  0  0
M  END
