omegapdb_1v2k_05.log
 OpenBabel09261812563D

 61 65  0  0  0  0  0  0  0  0999 V2000
    9.7703   -0.4311   -1.6202 N   0  0  0  0  0  0  0  0  0  0  0  0
    8.8272    0.4994   -1.7860 C   0  0  0  0  0  0  0  0  0  0  0  0
    7.5396    0.4293   -1.2783 C   0  0  0  0  0  0  0  0  0  0  0  0
    7.1555   -0.6973   -0.5254 C   0  0  0  0  0  0  0  0  0  0  0  0
    8.1443   -1.6843   -0.3476 C   0  0  0  0  0  0  0  0  0  0  0  0
    9.3994   -1.4952   -0.9040 C   0  0  0  0  0  0  0  0  0  0  0  0
    5.8932   -0.8263   -0.0011 N   0  0  0  0  0  0  0  0  0  0  0  0
    5.5961   -1.8079    1.0332 C   0  0  0  0  0  0  0  0  0  0  0  0
    4.5019   -1.2868    1.9616 C   0  0  0  0  0  0  0  0  0  0  0  0
    3.1858   -0.9963    1.2204 C   0  0  0  0  0  0  0  0  0  0  0  0
    3.4727   -0.6648   -0.2640 C   0  0  0  0  0  0  0  0  0  0  0  0
    4.8111    0.0508   -0.4238 C   0  0  0  0  0  0  0  0  0  0  0  0
    2.4627    0.1900    1.8675 C   0  0  0  0  0  0  0  0  0  0  0  0
    3.0775    1.0326    2.5063 O   0  0  0  0  0  0  0  0  0  0  0  0
    1.1096    0.3051    1.6649 N   0  0  0  0  0  0  0  0  0  0  0  0
    0.2580   -0.5631    0.8712 C   0  0  0  0  0  0  0  0  0  0  0  0
   -0.4322    0.2253   -0.2407 C   0  0  0  0  0  0  0  0  0  0  0  0
   -1.1503    1.3592    0.3464 N   0  0  0  0  0  0  0  0  0  0  0  0
   -0.2610    2.2555    1.1040 C   0  0  0  0  0  0  0  0  0  0  0  0
    0.4027    1.4533    2.2145 C   0  0  0  0  0  0  0  0  0  0  0  0
   -2.1701    2.1507   -0.7336 S   0  0  0  0  0  0  0  0  0  0  0  0
   -1.5629    2.1990   -2.0577 O   0  0  0  0  0  0  0  0  0  0  0  0
   -2.5955    3.3677   -0.0627 O   0  0  0  0  0  0  0  0  0  0  0  0
   -3.5496    1.0342   -0.8235 C   0  0  0  0  0  0  0  0  0  0  0  0
   -4.4986    1.0822    0.1623 C   0  0  0  0  0  0  0  0  0  0  0  0
   -5.6123    0.2086    0.1089 C   0  0  0  0  0  0  0  0  0  0  0  0
   -5.7236   -0.7044   -0.9727 C   0  0  0  0  0  0  0  0  0  0  0  0
   -4.7236   -0.7104   -1.9827 C   0  0  0  0  0  0  0  0  0  0  0  0
   -3.6569    0.1447   -1.9192 C   0  0  0  0  0  0  0  0  0  0  0  0
   -6.8384   -1.5833   -1.0249 C   0  0  0  0  0  0  0  0  0  0  0  0
   -7.7850   -1.5375   -0.0403 C   0  0  0  0  0  0  0  0  0  0  0  0
   -7.6891   -0.6282    1.0425 C   0  0  0  0  0  0  0  0  0  0  0  0
   -6.6233    0.2240    1.1086 C   0  0  0  0  0  0  0  0  0  0  0  0
   -9.1501   -2.6103   -0.0985 Cl  0  0  0  0  0  0  0  0  0  0  0  0
    9.1216    1.3766   -2.3620 H   0  0  0  0  0  0  0  0  0  0  0  0
    6.8611    1.2594   -1.4419 H   0  0  0  0  0  0  0  0  0  0  0  0
    7.9366   -2.6038    0.1890 H   0  0  0  0  0  0  0  0  0  0  0  0
   10.1597   -2.2643   -0.7682 H   0  0  0  0  0  0  0  0  0  0  0  0
    6.5003   -1.9760    1.6265 H   0  0  0  0  0  0  0  0  0  0  0  0
    5.3121   -2.7802    0.5967 H   0  0  0  0  0  0  0  0  0  0  0  0
    4.8471   -0.3611    2.4305 H   0  0  0  0  0  0  0  0  0  0  0  0
    4.3332   -2.0127    2.7643 H   0  0  0  0  0  0  0  0  0  0  0  0
    2.5493   -1.8858    1.2676 H   0  0  0  0  0  0  0  0  0  0  0  0
    3.4994   -1.5902   -0.8517 H   0  0  0  0  0  0  0  0  0  0  0  0
    2.6795   -0.0384   -0.6895 H   0  0  0  0  0  0  0  0  0  0  0  0
    4.9547    0.3012   -1.4799 H   0  0  0  0  0  0  0  0  0  0  0  0
    4.8016    0.9943    0.1448 H   0  0  0  0  0  0  0  0  0  0  0  0
    0.8337   -1.3732    0.4231 H   0  0  0  0  0  0  0  0  0  0  0  0
   -0.5078   -1.0090    1.5211 H   0  0  0  0  0  0  0  0  0  0  0  0
   -1.1491   -0.4285   -0.7489 H   0  0  0  0  0  0  0  0  0  0  0  0
    0.3048    0.5701   -0.9820 H   0  0  0  0  0  0  0  0  0  0  0  0
    0.5095    2.6911    0.4491 H   0  0  0  0  0  0  0  0  0  0  0  0
   -0.8623    3.0642    1.5223 H   0  0  0  0  0  0  0  0  0  0  0  0
    1.1261    2.0665    2.7519 H   0  0  0  0  0  0  0  0  0  0  0  0
   -0.3637    1.1012    2.9181 H   0  0  0  0  0  0  0  0  0  0  0  0
   -4.4055    1.7972    0.9761 H   0  0  0  0  0  0  0  0  0  0  0  0
   -4.8243   -1.3995   -2.8176 H   0  0  0  0  0  0  0  0  0  0  0  0
   -2.9026    0.1724   -2.6999 H   0  0  0  0  0  0  0  0  0  0  0  0
   -6.9335   -2.2865   -1.8475 H   0  0  0  0  0  0  0  0  0  0  0  0
   -8.4643   -0.6218    1.8019 H   0  0  0  0  0  0  0  0  0  0  0  0
   -6.5379    0.9291    1.9319 H   0  0  0  0  0  0  0  0  0  0  0  0
  1  6  1  0  0  0  0
  2  1  2  0  0  0  0
  2  3  1  0  0  0  0
  3  4  2  0  0  0  0
  4  5  1  0  0  0  0
  4  7  1  0  0  0  0
  5 37  1  0  0  0  0
  6 38  1  0  0  0  0
  6  5  2  0  0  0  0
  7  8  1  0  0  0  0
  8 39  1  0  0  0  0
  8  9  1  0  0  0  0
  9 41  1  0  0  0  0
  9 42  1  0  0  0  0
 10 43  1  0  0  0  0
 10 13  1  0  0  0  0
 10  9  1  0  0  0  0
 11 10  1  0  0  0  0
 12 11  1  0  0  0  0
 12  7  1  0  0  0  0
 12 47  1  0  0  0  0
 13 14  2  0  0  0  0
 15 13  1  0  0  0  0
 15 20  1  0  0  0  0
 16 49  1  0  0  0  0
 16 15  1  0  0  0  0
 17 18  1  0  0  0  0
 17 16  1  0  0  0  0
 18 19  1  0  0  0  0
 19 53  1  0  0  0  0
 19 20  1  0  0  0  0
 20 54  1  0  0  0  0
 20 55  1  0  0  0  0
 21 23  2  0  0  0  0
 21 18  1  0  0  0  0
 22 21  2  0  0  0  0
 24 21  1  0  0  0  0
 24 25  2  0  0  0  0
 25 56  1  0  0  0  0
 26 25  1  0  0  0  0
 26 33  2  0  0  0  0
 27 26  1  0  0  0  0
 28 29  2  0  0  0  0
 28 27  1  0  0  0  0
 29 24  1  0  0  0  0
 30 27  2  0  0  0  0
 30 31  1  0  0  0  0
 31 32  2  0  0  0  0
 32 33  1  0  0  0  0
 32 60  1  0  0  0  0
 33 61  1  0  0  0  0
 34 31  1  0  0  0  0
 35  2  1  0  0  0  0
 36  3  1  0  0  0  0
 40  8  1  0  0  0  0
 44 11  1  0  0  0  0
 45 11  1  0  0  0  0
 46 12  1  0  0  0  0
 48 16  1  0  0  0  0
 50 17  1  0  0  0  0
 51 17  1  0  0  0  0
 52 19  1  0  0  0  0
 57 28  1  0  0  0  0
 58 29  1  0  0  0  0
 59 30  1  0  0  0  0
M  END
