omegapdb_1qxw_20.log
 OpenBabel09261812563D

 36 36  0  0  1  0  0  0  0  0999 V2000
    3.2421    0.5592    0.8564 C   0  0  0  0  0  0  0  0  0  0  0  0
    3.6671    0.5806   -0.5855 C   0  0  0  0  0  0  0  0  0  0  0  0
    2.9096   -0.5933   -0.0456 C   0  0  0  0  0  0  0  0  0  0  0  0
    1.5380   -0.7360   -0.4449 N   0  0  0  0  0  0  0  0  0  0  0  0
    0.7453   -1.5057    0.4968 C   0  0  0  0  0  0  0  0  0  0  0  0
   -0.7088   -1.6071    0.0453 C   0  0  0  0  0  0  0  0  0  0  0  0
   -1.3897   -0.2515   -0.2442 C   0  0  1  0  0  0  0  0  0  0  0  0
   -2.7614   -0.4145   -0.7197 N   0  0  0  0  0  0  0  0  0  0  0  0
   -1.3655    0.6808    0.9697 C   0  0  0  0  0  0  0  0  0  0  0  0
   -1.9884    2.0539    0.7038 C   0  0  0  0  0  0  0  0  0  0  0  0
   -1.3655    2.8235   -0.4659 C   0  0  0  0  0  0  0  0  0  0  0  0
    0.1499    3.0002   -0.3608 C   0  0  0  0  0  0  0  0  0  0  0  0
   -0.6768   -2.4057   -1.1207 O   0  0  0  0  0  0  0  0  0  0  0  0
   -1.4904   -2.2431    1.0349 O   0  0  0  0  0  0  0  0  0  0  0  0
    4.0023    0.4168    1.6191 H   0  0  0  0  0  0  0  0  0  0  0  0
    2.4192    1.2095    1.1421 H   0  0  0  0  0  0  0  0  0  0  0  0
    3.1246    1.2427   -1.2543 H   0  0  0  0  0  0  0  0  0  0  0  0
    4.7203    0.4517   -0.8181 H   0  0  0  0  0  0  0  0  0  0  0  0
    3.4779   -1.5153    0.1180 H   0  0  0  0  0  0  0  0  0  0  0  0
    1.4805   -1.1789   -1.3583 H   0  0  0  0  0  0  0  0  0  0  0  0
    1.1202   -2.5387    0.6334 H   0  0  0  0  0  0  0  0  0  0  0  0
    0.7834   -1.0181    1.4751 H   0  0  0  0  0  0  0  0  0  0  0  0
   -0.8113    0.2072   -1.0524 H   0  0  0  0  0  0  0  0  0  0  0  0
   -3.2604   -1.0840   -0.1406 H   0  0  0  0  0  0  0  0  0  0  0  0
   -2.8114   -0.7053   -1.6895 H   0  0  0  0  0  0  0  0  0  0  0  0
   -1.8918    0.1929    1.8004 H   0  0  0  0  0  0  0  0  0  0  0  0
   -0.3253    0.8109    1.2921 H   0  0  0  0  0  0  0  0  0  0  0  0
   -3.0593    1.9267    0.5126 H   0  0  0  0  0  0  0  0  0  0  0  0
   -1.8931    2.6555    1.6188 H   0  0  0  0  0  0  0  0  0  0  0  0
   -1.6116    2.3152   -1.4077 H   0  0  0  0  0  0  0  0  0  0  0  0
   -1.8440    3.8096   -0.5253 H   0  0  0  0  0  0  0  0  0  0  0  0
    0.4267    3.4566    0.5985 H   0  0  0  0  0  0  0  0  0  0  0  0
    0.5275    3.6506   -1.1577 H   0  0  0  0  0  0  0  0  0  0  0  0
    0.6741    2.0393   -0.4397 H   0  0  0  0  0  0  0  0  0  0  0  0
   -1.5796   -2.4025   -1.4707 H   0  0  0  0  0  0  0  0  0  0  0  0
   -1.1443   -3.1420    1.1236 H   0  0  0  0  0  0  0  0  0  0  0  0
  1 16  1  0  0  0  0
  1 15  1  0  0  0  0
  2  3  1  0  0  0  0
  2  1  1  0  0  0  0
  3 19  1  0  0  0  0
  3  1  1  0  0  0  0
  4  3  1  0  0  0  0
  4  5  1  0  0  0  0
  5 21  1  0  0  0  0
  5 22  1  0  0  0  0
  6  5  1  0  0  0  0
  6 14  1  0  0  0  0
  7 23  1  6  0  0  0
  7  6  1  0  0  0  0
  7  9  1  0  0  0  0
  8  7  1  0  0  0  0
  8 24  1  0  0  0  0
  9 27  1  0  0  0  0
  9 26  1  0  0  0  0
 10  9  1  0  0  0  0
 10 29  1  0  0  0  0
 11 12  1  0  0  0  0
 11 10  1  0  0  0  0
 12 32  1  0  0  0  0
 13  6  1  0  0  0  0
 14 36  1  0  0  0  0
 17  2  1  0  0  0  0
 18  2  1  0  0  0  0
 20  4  1  0  0  0  0
 25  8  1  0  0  0  0
 28 10  1  0  0  0  0
 30 11  1  0  0  0  0
 31 11  1  0  0  0  0
 33 12  1  0  0  0  0
 34 12  1  0  0  0  0
 35 13  1  0  0  0  0
M  END
