omegapdb_1m5f_09.log
 OpenBabel09261812563D

 25 25  0  0  1  0  0  0  0  0999 V2000
   -2.8998   -2.4128    0.3181 O   0  0  0  0  0  0  0  0  0  0  0  0
   -1.7159   -1.8536    0.0425 C   0  0  0  0  0  0  0  0  0  0  0  0
   -0.7102   -2.5015   -0.1027 O   0  0  0  0  0  0  0  0  0  0  0  0
   -1.7346   -0.3645   -0.0571 C   0  0  0  0  0  0  0  0  0  0  0  0
   -2.8395    0.2743    0.2388 N   0  0  0  0  0  0  0  0  0  0  0  0
   -2.5513    1.5959    0.0985 O   0  0  0  0  0  0  0  0  0  0  0  0
   -1.2643    1.7403   -0.2806 C   0  0  0  0  0  0  0  0  0  0  0  0
   -0.6804    0.5166   -0.4126 C   0  0  0  0  0  0  0  0  0  0  0  0
    0.7284    0.1847   -0.7905 C   0  0  0  0  0  0  0  0  0  0  0  0
    1.6280    0.0398    0.4537 C   0  0  2  0  0  0  0  0  0  0  0  0
    1.6917    1.2915    1.1916 N   0  0  0  0  0  0  0  0  0  0  0  0
    3.0102   -0.4303    0.0161 C   0  0  0  0  0  0  0  0  0  0  0  0
    4.0116    0.2456    0.0733 O   0  0  0  0  0  0  0  0  0  0  0  0
    2.9978   -1.6767   -0.4795 O   0  0  0  0  0  0  0  0  0  0  0  0
   -0.7564    3.1290   -0.4370 C   0  0  0  0  0  0  0  0  0  0  0  0
   -3.5660   -1.7087    0.4137 H   0  0  0  0  0  0  0  0  0  0  0  0
    0.7498   -0.7499   -1.3569 H   0  0  0  0  0  0  0  0  0  0  0  0
    1.1366    0.9807   -1.4270 H   0  0  0  0  0  0  0  0  0  0  0  0
    1.1914   -0.7455    1.0810 H   0  0  0  0  0  0  0  0  0  0  0  0
    2.4766    1.8278    0.8251 H   0  0  0  0  0  0  0  0  0  0  0  0
    1.9245    1.1054    2.1624 H   0  0  0  0  0  0  0  0  0  0  0  0
    3.9084   -1.8757   -0.7543 H   0  0  0  0  0  0  0  0  0  0  0  0
   -0.2854    3.2604   -1.4164 H   0  0  0  0  0  0  0  0  0  0  0  0
   -1.5739    3.8470   -0.3414 H   0  0  0  0  0  0  0  0  0  0  0  0
   -0.0030    3.3238    0.3322 H   0  0  0  0  0  0  0  0  0  0  0  0
  1 16  1  0  0  0  0
  2  1  1  0  0  0  0
  3  2  2  0  0  0  0
  4  2  1  0  0  0  0
  4  5  2  0  0  0  0
  6  5  1  0  0  0  0
  7  6  1  0  0  0  0
  8  7  2  0  0  0  0
  8  4  1  0  0  0  0
  9  8  1  0  0  0  0
  9 10  1  0  0  0  0
 10 19  1  1  0  0  0
 10 11  1  0  0  0  0
 11 21  1  0  0  0  0
 12 13  2  0  0  0  0
 12 10  1  0  0  0  0
 14 12  1  0  0  0  0
 15 24  1  0  0  0  0
 15  7  1  0  0  0  0
 15 25  1  0  0  0  0
 17  9  1  0  0  0  0
 18  9  1  0  0  0  0
 20 11  1  0  0  0  0
 22 14  1  0  0  0  0
 23 15  1  0  0  0  0
M  END
