omegapdb_1qxw_21.log
 OpenBabel09261812563D

 36 36  0  0  1  0  0  0  0  0999 V2000
   -4.6887    0.6901   -0.1510 C   0  0  0  0  0  0  0  0  0  0  0  0
   -3.7108    1.7182   -0.6631 C   0  0  0  0  0  0  0  0  0  0  0  0
   -3.3322    0.7905    0.4640 C   0  0  0  0  0  0  0  0  0  0  0  0
   -2.3878   -0.2790    0.2822 N   0  0  0  0  0  0  0  0  0  0  0  0
   -1.0081    0.1719    0.1309 C   0  0  0  0  0  0  0  0  0  0  0  0
   -0.1221   -1.0728    0.1287 C   0  0  0  0  0  0  0  0  0  0  0  0
    1.3952   -0.8257    0.1895 C   0  0  1  0  0  0  0  0  0  0  0  0
    1.9923   -2.1616    0.0787 N   0  0  0  0  0  0  0  0  0  0  0  0
    1.9147    0.0599   -0.9450 C   0  0  0  0  0  0  0  0  0  0  0  0
    3.3847    0.4956   -0.7879 C   0  0  0  0  0  0  0  0  0  0  0  0
    3.5659    1.9090   -0.2225 C   0  0  0  0  0  0  0  0  0  0  0  0
    2.9875    2.1102    1.1767 C   0  0  0  0  0  0  0  0  0  0  0  0
   -0.4424   -1.7745   -1.0477 O   0  0  0  0  0  0  0  0  0  0  0  0
   -0.4129   -1.8375    1.2759 O   0  0  0  0  0  0  0  0  0  0  0  0
   -4.8915   -0.1706   -0.7844 H   0  0  0  0  0  0  0  0  0  0  0  0
   -5.5457    1.0248    0.4259 H   0  0  0  0  0  0  0  0  0  0  0  0
   -3.2584    1.5346   -1.6350 H   0  0  0  0  0  0  0  0  0  0  0  0
   -3.8955    2.7662   -0.4436 H   0  0  0  0  0  0  0  0  0  0  0  0
   -3.2755    1.2317    1.4580 H   0  0  0  0  0  0  0  0  0  0  0  0
   -2.6289   -0.8340   -0.5355 H   0  0  0  0  0  0  0  0  0  0  0  0
   -0.7486    0.7977    0.9942 H   0  0  0  0  0  0  0  0  0  0  0  0
   -0.8529    0.7621   -0.7839 H   0  0  0  0  0  0  0  0  0  0  0  0
    1.6049   -0.3494    1.1604 H   0  0  0  0  0  0  0  0  0  0  0  0
    3.0012   -2.1028   -0.0153 H   0  0  0  0  0  0  0  0  0  0  0  0
    1.7888   -2.6852    0.9253 H   0  0  0  0  0  0  0  0  0  0  0  0
    1.2911    0.9593   -1.0249 H   0  0  0  0  0  0  0  0  0  0  0  0
    1.7720   -0.4951   -1.8790 H   0  0  0  0  0  0  0  0  0  0  0  0
    3.8850    0.4497   -1.7625 H   0  0  0  0  0  0  0  0  0  0  0  0
    3.9270   -0.2107   -0.1412 H   0  0  0  0  0  0  0  0  0  0  0  0
    4.6374    2.1469   -0.2067 H   0  0  0  0  0  0  0  0  0  0  0  0
    3.1032    2.6277   -0.9131 H   0  0  0  0  0  0  0  0  0  0  0  0
    3.4176    1.3960    1.8898 H   0  0  0  0  0  0  0  0  0  0  0  0
    1.8994    1.9760    1.1887 H   0  0  0  0  0  0  0  0  0  0  0  0
    3.1968    3.1193    1.5473 H   0  0  0  0  0  0  0  0  0  0  0  0
    0.2482   -2.4608   -1.1031 H   0  0  0  0  0  0  0  0  0  0  0  0
   -1.3814   -1.7838    1.3643 H   0  0  0  0  0  0  0  0  0  0  0  0
  1 16  1  0  0  0  0
  1  3  1  0  0  0  0
  2 18  1  0  0  0  0
  2  1  1  0  0  0  0
  2  3  1  0  0  0  0
  3 19  1  0  0  0  0
  4  3  1  0  0  0  0
  5  4  1  0  0  0  0
  5 21  1  0  0  0  0
  6  5  1  0  0  0  0
  6  7  1  0  0  0  0
  6 14  1  0  0  0  0
  7 23  1  1  0  0  0
  8  7  1  0  0  0  0
  8 25  1  0  0  0  0
  9 10  1  0  0  0  0
  9  7  1  0  0  0  0
 10 11  1  0  0  0  0
 10 29  1  0  0  0  0
 11 30  1  0  0  0  0
 11 12  1  0  0  0  0
 12 33  1  0  0  0  0
 12 34  1  0  0  0  0
 12 32  1  0  0  0  0
 13  6  1  0  0  0  0
 14 36  1  0  0  0  0
 15  1  1  0  0  0  0
 17  2  1  0  0  0  0
 20  4  1  0  0  0  0
 22  5  1  0  0  0  0
 24  8  1  0  0  0  0
 26  9  1  0  0  0  0
 27  9  1  0  0  0  0
 28 10  1  0  0  0  0
 31 11  1  0  0  0  0
 35 13  1  0  0  0  0
M  END
