omegapdb_1m5f_20.log
 OpenBabel09261812563D

 25 25  0  0  1  0  0  0  0  0999 V2000
   -1.5613   -2.9368   -0.0326 O   0  0  0  0  0  0  0  0  0  0  0  0
   -0.7951   -1.9453   -0.4911 C   0  0  0  0  0  0  0  0  0  0  0  0
    0.2366   -2.1149   -1.0984 O   0  0  0  0  0  0  0  0  0  0  0  0
   -1.3380   -0.5940   -0.1850 C   0  0  0  0  0  0  0  0  0  0  0  0
   -2.5243   -0.4392    0.3457 N   0  0  0  0  0  0  0  0  0  0  0  0
   -2.6930    0.9097    0.4709 O   0  0  0  0  0  0  0  0  0  0  0  0
   -1.6021    1.5572    0.0151 C   0  0  0  0  0  0  0  0  0  0  0  0
   -0.6817    0.6546   -0.4258 C   0  0  0  0  0  0  0  0  0  0  0  0
    0.6701    0.9219   -1.0208 C   0  0  0  0  0  0  0  0  0  0  0  0
    1.8275    1.0307   -0.0040 C   0  0  2  0  0  0  0  0  0  0  0  0
    3.0158    1.4718   -0.7074 N   0  0  0  0  0  0  0  0  0  0  0  0
    2.0552   -0.2935    0.7451 C   0  0  0  0  0  0  0  0  0  0  0  0
    3.0041   -1.0026    0.5467 O   0  0  0  0  0  0  0  0  0  0  0  0
    1.1297   -0.6284    1.6729 O   0  0  0  0  0  0  0  0  0  0  0  0
   -1.6360    3.0434    0.0708 C   0  0  0  0  0  0  0  0  0  0  0  0
   -1.1100   -3.7621   -0.2780 H   0  0  0  0  0  0  0  0  0  0  0  0
    0.6562    1.8716   -1.5650 H   0  0  0  0  0  0  0  0  0  0  0  0
    0.9115    0.1338   -1.7397 H   0  0  0  0  0  0  0  0  0  0  0  0
    1.5616    1.7993    0.7368 H   0  0  0  0  0  0  0  0  0  0  0  0
    3.3568    0.6858   -1.2586 H   0  0  0  0  0  0  0  0  0  0  0  0
    3.7549    1.6478   -0.0316 H   0  0  0  0  0  0  0  0  0  0  0  0
    0.4385    0.0489    1.7126 H   0  0  0  0  0  0  0  0  0  0  0  0
   -2.4964    3.4287   -0.4845 H   0  0  0  0  0  0  0  0  0  0  0  0
   -1.7185    3.3952    1.1041 H   0  0  0  0  0  0  0  0  0  0  0  0
   -0.7240    3.4569   -0.3669 H   0  0  0  0  0  0  0  0  0  0  0  0
  2  4  1  0  0  0  0
  2  1  1  0  0  0  0
  3  2  2  0  0  0  0
  4  5  2  0  0  0  0
  5  6  1  0  0  0  0
  7 15  1  0  0  0  0
  7  6  1  0  0  0  0
  8  4  1  0  0  0  0
  8  7  2  0  0  0  0
  9  8  1  0  0  0  0
  9 10  1  0  0  0  0
 10 19  1  1  0  0  0
 10 12  1  0  0  0  0
 11 21  1  0  0  0  0
 11 10  1  0  0  0  0
 12 14  1  0  0  0  0
 13 12  2  0  0  0  0
 14 22  1  0  0  0  0
 15 24  1  0  0  0  0
 16  1  1  0  0  0  0
 17  9  1  0  0  0  0
 18  9  1  0  0  0  0
 20 11  1  0  0  0  0
 23 15  1  0  0  0  0
 25 15  1  0  0  0  0
M  END
