omegapdb_1m5f_08.log
 OpenBabel09261812563D

 25 25  0  0  1  0  0  0  0  0999 V2000
    2.7558   -2.3609    0.1586 O   0  0  0  0  0  0  0  0  0  0  0  0
    1.6840   -1.7248   -0.3218 C   0  0  0  0  0  0  0  0  0  0  0  0
    0.7794   -2.2922   -0.8949 O   0  0  0  0  0  0  0  0  0  0  0  0
    1.7284   -0.2568   -0.1017 C   0  0  0  0  0  0  0  0  0  0  0  0
    2.8382    0.3276    0.2732 N   0  0  0  0  0  0  0  0  0  0  0  0
    2.5449    1.6580    0.3328 O   0  0  0  0  0  0  0  0  0  0  0  0
    1.2550    1.8615   -0.0083 C   0  0  0  0  0  0  0  0  0  0  0  0
    0.6659    0.6736   -0.3065 C   0  0  0  0  0  0  0  0  0  0  0  0
   -0.7545    0.4090   -0.6973 C   0  0  0  0  0  0  0  0  0  0  0  0
   -1.6262    0.0141    0.5115 C   0  0  2  0  0  0  0  0  0  0  0  0
   -1.0929   -1.1568    1.1724 N   0  0  0  0  0  0  0  0  0  0  0  0
   -3.0782   -0.1550    0.0726 C   0  0  0  0  0  0  0  0  0  0  0  0
   -3.7387   -1.1536    0.2237 O   0  0  0  0  0  0  0  0  0  0  0  0
   -3.5723    0.9618   -0.5020 O   0  0  0  0  0  0  0  0  0  0  0  0
    0.7773    3.2702    0.0169 C   0  0  0  0  0  0  0  0  0  0  0  0
    2.6286   -3.2995   -0.0582 H   0  0  0  0  0  0  0  0  0  0  0  0
   -0.7828   -0.4004   -1.4343 H   0  0  0  0  0  0  0  0  0  0  0  0
   -1.1866    1.2976   -1.1679 H   0  0  0  0  0  0  0  0  0  0  0  0
   -1.6140    0.8519    1.2231 H   0  0  0  0  0  0  0  0  0  0  0  0
   -1.0817   -1.9346    0.5167 H   0  0  0  0  0  0  0  0  0  0  0  0
   -1.7129   -1.4306    1.9292 H   0  0  0  0  0  0  0  0  0  0  0  0
   -4.4934    0.7605   -0.7369 H   0  0  0  0  0  0  0  0  0  0  0  0
    0.8065    3.6733    1.0342 H   0  0  0  0  0  0  0  0  0  0  0  0
   -0.2513    3.3262   -0.3483 H   0  0  0  0  0  0  0  0  0  0  0  0
    1.4076    3.9034   -0.6150 H   0  0  0  0  0  0  0  0  0  0  0  0
  2  4  1  0  0  0  0
  2  1  1  0  0  0  0
  3  2  2  0  0  0  0
  4  5  2  0  0  0  0
  5  6  1  0  0  0  0
  7 15  1  0  0  0  0
  7  6  1  0  0  0  0
  8  4  1  0  0  0  0
  8  7  2  0  0  0  0
  9  8  1  0  0  0  0
  9 10  1  0  0  0  0
 10 11  1  0  0  0  0
 10 19  1  1  0  0  0
 11 21  1  0  0  0  0
 12 13  2  0  0  0  0
 12 10  1  0  0  0  0
 14 12  1  0  0  0  0
 15 23  1  0  0  0  0
 16  1  1  0  0  0  0
 17  9  1  0  0  0  0
 18  9  1  0  0  0  0
 20 11  1  0  0  0  0
 22 14  1  0  0  0  0
 24 15  1  0  0  0  0
 25 15  1  0  0  0  0
M  END
