omegapdb_1z1r_06.log
 OpenBabel09261812563D

 66 68  0  0  1  0  0  0  0  0999 V2000
    0.1244   -0.0922    0.3779 C   0  0  2  0  0  0  0  0  0  0  0  0
    0.1734   -1.2865   -0.6081 C   0  0  0  0  0  0  0  0  0  0  0  0
   -1.1058   -2.0853   -0.6202 C   0  0  0  0  0  0  0  0  0  0  0  0
   -2.0058   -1.9584   -1.6812 C   0  0  0  0  0  0  0  0  0  0  0  0
   -3.2764   -2.5212   -1.6155 C   0  0  0  0  0  0  0  0  0  0  0  0
   -3.6655   -3.2129   -0.4720 C   0  0  0  0  0  0  0  0  0  0  0  0
   -2.7363   -3.4624    0.5374 C   0  0  0  0  0  0  0  0  0  0  0  0
   -1.4715   -2.8903    0.4617 C   0  0  0  0  0  0  0  0  0  0  0  0
   -4.9818   -3.5778   -0.3478 O   0  0  0  0  0  0  0  0  0  0  0  0
   -5.6705   -2.9532    0.7406 C   0  0  0  0  0  0  0  0  0  0  0  0
   -5.7356   -1.4251    0.6725 C   0  0  0  0  0  0  0  0  0  0  0  0
   -4.4352   -0.7003    1.0397 C   0  0  0  0  0  0  0  0  0  0  0  0
   -4.6256    0.7774    1.3387 C   0  0  0  0  0  0  0  0  0  0  0  0
   -5.4445    1.1655    2.1486 O   0  0  0  0  0  0  0  0  0  0  0  0
   -3.7238    1.6547    0.7536 N   0  0  0  0  0  0  0  0  0  0  0  0
   -3.2143    1.5425   -0.6072 C   0  0  2  0  0  0  0  0  0  0  0  0
   -1.7194    1.1854   -0.7103 C   0  0  0  0  0  0  0  0  0  0  0  0
   -1.1160    1.3953   -1.7715 O   0  0  0  0  0  0  0  0  0  0  0  0
   -1.1694    0.6021    0.3615 N   0  0  0  0  0  0  0  0  0  0  0  0
   -3.4888    2.8288   -1.4027 C   0  0  0  0  0  0  0  0  0  0  0  0
   -2.7994    4.0112   -0.7395 C   0  0  0  0  0  0  0  0  0  0  0  0
   -3.2406    4.5048    0.2899 O   0  0  0  0  0  0  0  0  0  0  0  0
   -1.6657    4.4454   -1.3454 N   0  0  0  0  0  0  0  0  0  0  0  0
    1.3010    0.8896    0.1682 C   0  0  2  0  0  0  0  0  0  0  0  0
    1.5620    1.1602   -1.1911 O   0  0  0  0  0  0  0  0  0  0  0  0
    2.6004    0.3402    0.7441 C   0  0  0  0  0  0  0  0  0  0  0  0
    3.6438    1.3249    0.4959 N   0  0  0  0  0  0  0  0  0  0  0  0
    5.1678    1.0337    1.0725 S   0  0  0  0  0  0  0  0  0  0  0  0
    5.0134    0.6609    2.4682 O   0  0  0  0  0  0  0  0  0  0  0  0
    5.9754    2.1612    0.6455 O   0  0  0  0  0  0  0  0  0  0  0  0
    5.7629   -0.4079    0.2094 C   0  0  0  0  0  0  0  0  0  0  0  0
    6.3864   -0.2506   -1.0259 C   0  0  0  0  0  0  0  0  0  0  0  0
    6.8159   -1.3789   -1.7149 C   0  0  0  0  0  0  0  0  0  0  0  0
    6.6228   -2.6461   -1.1687 C   0  0  0  0  0  0  0  0  0  0  0  0
    6.0069   -2.7911    0.0711 C   0  0  0  0  0  0  0  0  0  0  0  0
    5.5733   -1.6681    0.7693 C   0  0  0  0  0  0  0  0  0  0  0  0
    0.2042   -0.4805    1.4002 H   0  0  0  0  0  0  0  0  0  0  0  0
    0.3878   -0.9057   -1.6093 H   0  0  0  0  0  0  0  0  0  0  0  0
    1.0246   -1.9158   -0.3214 H   0  0  0  0  0  0  0  0  0  0  0  0
   -1.7264   -1.3605   -2.5469 H   0  0  0  0  0  0  0  0  0  0  0  0
   -4.0027   -2.3757   -2.4106 H   0  0  0  0  0  0  0  0  0  0  0  0
   -3.0247   -4.0553    1.4016 H   0  0  0  0  0  0  0  0  0  0  0  0
   -0.7657   -3.0494    1.2762 H   0  0  0  0  0  0  0  0  0  0  0  0
   -5.2294   -3.2677    1.6978 H   0  0  0  0  0  0  0  0  0  0  0  0
   -6.6806   -3.3672    0.6874 H   0  0  0  0  0  0  0  0  0  0  0  0
   -6.0687   -1.1315   -0.3317 H   0  0  0  0  0  0  0  0  0  0  0  0
   -6.5085   -1.0931    1.3761 H   0  0  0  0  0  0  0  0  0  0  0  0
   -4.0457   -1.1254    1.9755 H   0  0  0  0  0  0  0  0  0  0  0  0
   -3.6603   -0.8547    0.2904 H   0  0  0  0  0  0  0  0  0  0  0  0
   -3.8702    2.6200    1.0503 H   0  0  0  0  0  0  0  0  0  0  0  0
   -3.7250    0.7200   -1.1247 H   0  0  0  0  0  0  0  0  0  0  0  0
   -1.7659    0.5380    1.1754 H   0  0  0  0  0  0  0  0  0  0  0  0
   -4.5645    3.0227   -1.4002 H   0  0  0  0  0  0  0  0  0  0  0  0
   -3.1516    2.6853   -2.4308 H   0  0  0  0  0  0  0  0  0  0  0  0
   -1.2038    3.8566   -2.0234 H   0  0  0  0  0  0  0  0  0  0  0  0
   -1.1128    5.1325   -0.8532 H   0  0  0  0  0  0  0  0  0  0  0  0
    1.0572    1.8179    0.7085 H   0  0  0  0  0  0  0  0  0  0  0  0
    0.7055    1.3788   -1.6082 H   0  0  0  0  0  0  0  0  0  0  0  0
    2.8319   -0.6301    0.2760 H   0  0  0  0  0  0  0  0  0  0  0  0
    2.5132    0.2001    1.8254 H   0  0  0  0  0  0  0  0  0  0  0  0
    3.6474    1.6640   -0.4629 H   0  0  0  0  0  0  0  0  0  0  0  0
    6.5496    0.7470   -1.4240 H   0  0  0  0  0  0  0  0  0  0  0  0
    7.3098   -1.2686   -2.6763 H   0  0  0  0  0  0  0  0  0  0  0  0
    6.9634   -3.5253   -1.7094 H   0  0  0  0  0  0  0  0  0  0  0  0
    5.8715   -3.7796    0.5014 H   0  0  0  0  0  0  0  0  0  0  0  0
    5.1156   -1.7548    1.7506 H   0  0  0  0  0  0  0  0  0  0  0  0
  1 37  1  1  0  0  0
  2 39  1  0  0  0  0
  2  1  1  0  0  0  0
  3  2  1  0  0  0  0
  3  8  2  0  0  0  0
  4  5  2  0  0  0  0
  4  3  1  0  0  0  0
  5  6  1  0  0  0  0
  6  9  1  0  0  0  0
  6  7  2  0  0  0  0
  7 42  1  0  0  0  0
  8  7  1  0  0  0  0
  8 43  1  0  0  0  0
  9 10  1  0  0  0  0
 10 44  1  0  0  0  0
 11 10  1  0  0  0  0
 11 12  1  0  0  0  0
 11 47  1  0  0  0  0
 12 13  1  0  0  0  0
 12 48  1  0  0  0  0
 13 14  2  0  0  0  0
 15 50  1  0  0  0  0
 15 13  1  0  0  0  0
 16 51  1  6  0  0  0
 16 15  1  0  0  0  0
 17 16  1  0  0  0  0
 17 19  1  0  0  0  0
 18 17  2  0  0  0  0
 19  1  1  0  0  0  0
 19 52  1  0  0  0  0
 20 53  1  0  0  0  0
 20 21  1  0  0  0  0
 20 16  1  0  0  0  0
 21 22  2  0  0  0  0
 23 56  1  0  0  0  0
 23 21  1  0  0  0  0
 24  1  1  0  0  0  0
 24 57  1  1  0  0  0
 24 26  1  0  0  0  0
 25 24  1  0  0  0  0
 26 60  1  0  0  0  0
 27 26  1  0  0  0  0
 27 28  1  0  0  0  0
 28 29  2  0  0  0  0
 30 28  2  0  0  0  0
 31 36  1  0  0  0  0
 31 28  1  0  0  0  0
 32 31  2  0  0  0  0
 33 34  2  0  0  0  0
 33 32  1  0  0  0  0
 34 35  1  0  0  0  0
 35 65  1  0  0  0  0
 35 36  2  0  0  0  0
 36 66  1  0  0  0  0
 38  2  1  0  0  0  0
 40  4  1  0  0  0  0
 41  5  1  0  0  0  0
 45 10  1  0  0  0  0
 46 11  1  0  0  0  0
 49 12  1  0  0  0  0
 54 20  1  0  0  0  0
 55 23  1  0  0  0  0
 58 25  1  0  0  0  0
 59 26  1  0  0  0  0
 61 27  1  0  0  0  0
 62 32  1  0  0  0  0
 63 33  1  0  0  0  0
 64 34  1  0  0  0  0
M  END
