omegapdb_1z1r_25.log
 OpenBabel09261812563D

 66 68  0  0  1  0  0  0  0  0999 V2000
    0.4323   -2.4849   -1.6179 C   0  0  2  0  0  0  0  0  0  0  0  0
    0.2040   -1.4891   -2.7834 C   0  0  0  0  0  0  0  0  0  0  0  0
   -0.6479   -0.2758   -2.4963 C   0  0  0  0  0  0  0  0  0  0  0  0
   -2.0404   -0.3473   -2.5444 C   0  0  0  0  0  0  0  0  0  0  0  0
   -2.8365    0.7446   -2.2029 C   0  0  0  0  0  0  0  0  0  0  0  0
   -2.2324    1.9371   -1.8089 C   0  0  0  0  0  0  0  0  0  0  0  0
   -0.8414    2.0449   -1.8263 C   0  0  0  0  0  0  0  0  0  0  0  0
   -0.0638    0.9488   -2.1616 C   0  0  0  0  0  0  0  0  0  0  0  0
   -2.9362    3.0370   -1.4028 O   0  0  0  0  0  0  0  0  0  0  0  0
   -3.9510    2.8309   -0.4187 C   0  0  0  0  0  0  0  0  0  0  0  0
   -3.3921    2.5788    0.9807 C   0  0  0  0  0  0  0  0  0  0  0  0
   -2.7186    1.2207    1.2078 C   0  0  0  0  0  0  0  0  0  0  0  0
   -3.6940    0.0676    1.0102 C   0  0  0  0  0  0  0  0  0  0  0  0
   -4.9033    0.2480    1.0303 O   0  0  0  0  0  0  0  0  0  0  0  0
   -3.1978   -1.2042    0.8849 N   0  0  0  0  0  0  0  0  0  0  0  0
   -1.8493   -1.6395    0.5979 C   0  0  2  0  0  0  0  0  0  0  0  0
   -1.9297   -2.7301   -0.4789 C   0  0  0  0  0  0  0  0  0  0  0  0
   -2.9776   -3.3468   -0.6217 O   0  0  0  0  0  0  0  0  0  0  0  0
   -0.8155   -3.1291   -1.1725 N   0  0  0  0  0  0  0  0  0  0  0  0
   -1.2001   -2.2826    1.8498 C   0  0  0  0  0  0  0  0  0  0  0  0
   -0.7676   -1.2365    2.8570 C   0  0  0  0  0  0  0  0  0  0  0  0
    0.3193   -0.6653    2.7805 O   0  0  0  0  0  0  0  0  0  0  0  0
   -1.6540   -0.9605    3.8399 N   0  0  0  0  0  0  0  0  0  0  0  0
    1.3368   -1.9969   -0.4737 C   0  0  2  0  0  0  0  0  0  0  0  0
    0.8660   -0.7878    0.0572 O   0  0  0  0  0  0  0  0  0  0  0  0
    2.7917   -1.8077   -0.9281 C   0  0  0  0  0  0  0  0  0  0  0  0
    3.6034   -1.3932    0.2120 N   0  0  0  0  0  0  0  0  0  0  0  0
    4.5466   -0.0199    0.1094 S   0  0  0  0  0  0  0  0  0  0  0  0
    5.0283    0.1718   -1.2518 O   0  0  0  0  0  0  0  0  0  0  0  0
    5.4783   -0.1477    1.2182 O   0  0  0  0  0  0  0  0  0  0  0  0
    3.3767    1.2773    0.4297 C   0  0  0  0  0  0  0  0  0  0  0  0
    2.6243    1.2506    1.6006 C   0  0  0  0  0  0  0  0  0  0  0  0
    1.6872    2.2502    1.8214 C   0  0  0  0  0  0  0  0  0  0  0  0
    1.5294    3.2767    0.8905 C   0  0  0  0  0  0  0  0  0  0  0  0
    2.3062    3.3057   -0.2637 C   0  0  0  0  0  0  0  0  0  0  0  0
    3.2350    2.2958   -0.5048 C   0  0  0  0  0  0  0  0  0  0  0  0
    0.9879   -3.3234   -2.0590 H   0  0  0  0  0  0  0  0  0  0  0  0
   -0.2533   -2.0656   -3.5978 H   0  0  0  0  0  0  0  0  0  0  0  0
    1.1859   -1.1715   -3.1554 H   0  0  0  0  0  0  0  0  0  0  0  0
   -2.5250   -1.2767   -2.8405 H   0  0  0  0  0  0  0  0  0  0  0  0
   -3.9187    0.6560   -2.2329 H   0  0  0  0  0  0  0  0  0  0  0  0
   -0.3879    2.9855   -1.5271 H   0  0  0  0  0  0  0  0  0  0  0  0
    1.0196    1.0358   -2.1126 H   0  0  0  0  0  0  0  0  0  0  0  0
   -4.6312    2.0243   -0.7088 H   0  0  0  0  0  0  0  0  0  0  0  0
   -4.5205    3.7643   -0.4170 H   0  0  0  0  0  0  0  0  0  0  0  0
   -2.6755    3.3750    1.2164 H   0  0  0  0  0  0  0  0  0  0  0  0
   -4.2303    2.6679    1.6803 H   0  0  0  0  0  0  0  0  0  0  0  0
   -1.8271    1.1073    0.5844 H   0  0  0  0  0  0  0  0  0  0  0  0
   -2.3635    1.1685    2.2464 H   0  0  0  0  0  0  0  0  0  0  0  0
   -3.9040   -1.8950    0.6468 H   0  0  0  0  0  0  0  0  0  0  0  0
   -1.2263   -0.8182    0.2467 H   0  0  0  0  0  0  0  0  0  0  0  0
   -1.0851   -3.9070   -1.7633 H   0  0  0  0  0  0  0  0  0  0  0  0
   -1.9190   -2.9861    2.2837 H   0  0  0  0  0  0  0  0  0  0  0  0
   -0.3074   -2.8469    1.5715 H   0  0  0  0  0  0  0  0  0  0  0  0
   -2.5883   -1.3389    3.8252 H   0  0  0  0  0  0  0  0  0  0  0  0
   -1.4370   -0.2223    4.4932 H   0  0  0  0  0  0  0  0  0  0  0  0
    1.3341   -2.7918    0.2893 H   0  0  0  0  0  0  0  0  0  0  0  0
    1.0045   -0.7612    1.0237 H   0  0  0  0  0  0  0  0  0  0  0  0
    3.1973   -2.7244   -1.3751 H   0  0  0  0  0  0  0  0  0  0  0  0
    2.8442   -1.0248   -1.6912 H   0  0  0  0  0  0  0  0  0  0  0  0
    4.1416   -2.1182    0.6734 H   0  0  0  0  0  0  0  0  0  0  0  0
    2.7423    0.4394    2.3136 H   0  0  0  0  0  0  0  0  0  0  0  0
    1.0719    2.2136    2.7157 H   0  0  0  0  0  0  0  0  0  0  0  0
    0.7931    4.0574    1.0658 H   0  0  0  0  0  0  0  0  0  0  0  0
    2.1858    4.1102   -0.9847 H   0  0  0  0  0  0  0  0  0  0  0  0
    3.8421    2.2844   -1.4050 H   0  0  0  0  0  0  0  0  0  0  0  0
  1 37  1  6  0  0  0
  1 19  1  0  0  0  0
  1 24  1  0  0  0  0
  2  3  1  0  0  0  0
  2  1  1  0  0  0  0
  3  8  1  0  0  0  0
  4  3  2  0  0  0  0
  4  5  1  0  0  0  0
  5  6  2  0  0  0  0
  6  9  1  0  0  0  0
  7  6  1  0  0  0  0
  7 42  1  0  0  0  0
  8 43  1  0  0  0  0
  8  7  2  0  0  0  0
  9 10  1  0  0  0  0
 10 45  1  0  0  0  0
 10 11  1  0  0  0  0
 11 12  1  0  0  0  0
 11 46  1  0  0  0  0
 11 47  1  0  0  0  0
 12 49  1  0  0  0  0
 13 14  2  0  0  0  0
 13 12  1  0  0  0  0
 15 13  1  0  0  0  0
 16 51  1  6  0  0  0
 16 15  1  0  0  0  0
 16 20  1  0  0  0  0
 17 16  1  0  0  0  0
 18 17  2  0  0  0  0
 19 17  1  0  0  0  0
 20 53  1  0  0  0  0
 20 21  1  0  0  0  0
 21 23  1  0  0  0  0
 22 21  2  0  0  0  0
 23 56  1  0  0  0  0
 24 25  1  0  0  0  0
 24 57  1  1  0  0  0
 25 58  1  0  0  0  0
 26 24  1  0  0  0  0
 26 27  1  0  0  0  0
 27 61  1  0  0  0  0
 28 27  1  0  0  0  0
 28 31  1  0  0  0  0
 28 30  2  0  0  0  0
 29 28  2  0  0  0  0
 31 32  2  0  0  0  0
 32 33  1  0  0  0  0
 32 62  1  0  0  0  0
 33 63  1  0  0  0  0
 34 64  1  0  0  0  0
 34 33  2  0  0  0  0
 35 34  1  0  0  0  0
 36 35  2  0  0  0  0
 36 31  1  0  0  0  0
 38  2  1  0  0  0  0
 39  2  1  0  0  0  0
 40  4  1  0  0  0  0
 41  5  1  0  0  0  0
 44 10  1  0  0  0  0
 48 12  1  0  0  0  0
 50 15  1  0  0  0  0
 52 19  1  0  0  0  0
 54 20  1  0  0  0  0
 55 23  1  0  0  0  0
 59 26  1  0  0  0  0
 60 26  1  0  0  0  0
 65 35  1  0  0  0  0
 66 36  1  0  0  0  0
M  END
