omegapdb_1z1r_19.log
 OpenBabel09261812563D

 66 68  0  0  1  0  0  0  0  0999 V2000
    0.1757    0.0563    0.0094 C   0  0  2  0  0  0  0  0  0  0  0  0
    0.4167   -1.4019   -0.4287 C   0  0  0  0  0  0  0  0  0  0  0  0
   -0.8305   -2.2357   -0.2580 C   0  0  0  0  0  0  0  0  0  0  0  0
   -1.6005   -2.6080   -1.3623 C   0  0  0  0  0  0  0  0  0  0  0  0
   -2.8514   -3.1995   -1.2041 C   0  0  0  0  0  0  0  0  0  0  0  0
   -3.3527   -3.4099    0.0771 C   0  0  0  0  0  0  0  0  0  0  0  0
   -2.5589   -3.1303    1.1890 C   0  0  0  0  0  0  0  0  0  0  0  0
   -1.3112   -2.5471    1.0179 C   0  0  0  0  0  0  0  0  0  0  0  0
   -4.6255   -3.8693    0.2831 O   0  0  0  0  0  0  0  0  0  0  0  0
   -5.6612   -2.9874   -0.1595 C   0  0  0  0  0  0  0  0  0  0  0  0
   -5.7010   -1.6416    0.5643 C   0  0  0  0  0  0  0  0  0  0  0  0
   -4.7414   -0.5684    0.0428 C   0  0  0  0  0  0  0  0  0  0  0  0
   -5.0035    0.7747    0.7160 C   0  0  0  0  0  0  0  0  0  0  0  0
   -5.8881    0.9182    1.5421 O   0  0  0  0  0  0  0  0  0  0  0  0
   -4.2018    1.8271    0.3628 N   0  0  0  0  0  0  0  0  0  0  0  0
   -3.1526    1.8660   -0.6277 C   0  0  2  0  0  0  0  0  0  0  0  0
   -1.7609    1.5852   -0.0287 C   0  0  0  0  0  0  0  0  0  0  0  0
   -1.2912    2.2993    0.8423 O   0  0  0  0  0  0  0  0  0  0  0  0
   -1.0659    0.5542   -0.6007 N   0  0  0  0  0  0  0  0  0  0  0  0
   -3.1030    3.2560   -1.2926 C   0  0  0  0  0  0  0  0  0  0  0  0
   -2.9552    4.3903   -0.2819 C   0  0  0  0  0  0  0  0  0  0  0  0
   -3.8410    4.6416    0.5197 O   0  0  0  0  0  0  0  0  0  0  0  0
   -1.8277    5.1491   -0.3872 N   0  0  0  0  0  0  0  0  0  0  0  0
    1.3094    1.0358   -0.3515 C   0  0  2  0  0  0  0  0  0  0  0  0
    1.4305    1.1987   -1.7547 O   0  0  0  0  0  0  0  0  0  0  0  0
    2.6879    0.6385    0.1675 C   0  0  0  0  0  0  0  0  0  0  0  0
    3.2642   -0.4017   -0.6703 N   0  0  0  0  0  0  0  0  0  0  0  0
    4.4672   -1.3693   -0.0912 S   0  0  0  0  0  0  0  0  0  0  0  0
    3.9942   -1.8838    1.1843 O   0  0  0  0  0  0  0  0  0  0  0  0
    4.8368   -2.2359   -1.1958 O   0  0  0  0  0  0  0  0  0  0  0  0
    5.8558   -0.3088    0.2539 C   0  0  0  0  0  0  0  0  0  0  0  0
    5.9720    0.2820    1.5092 C   0  0  0  0  0  0  0  0  0  0  0  0
    7.0342    1.1468    1.7533 C   0  0  0  0  0  0  0  0  0  0  0  0
    7.9654    1.4074    0.7516 C   0  0  0  0  0  0  0  0  0  0  0  0
    7.8447    0.8012   -0.4969 C   0  0  0  0  0  0  0  0  0  0  0  0
    6.7858   -0.0625   -0.7527 C   0  0  0  0  0  0  0  0  0  0  0  0
    0.0484    0.0956    1.0999 H   0  0  0  0  0  0  0  0  0  0  0  0
    1.2462   -1.8045    0.1603 H   0  0  0  0  0  0  0  0  0  0  0  0
    0.7436   -1.4121   -1.4745 H   0  0  0  0  0  0  0  0  0  0  0  0
   -1.2189   -2.4229   -2.3659 H   0  0  0  0  0  0  0  0  0  0  0  0
   -3.4508   -3.4701   -2.0696 H   0  0  0  0  0  0  0  0  0  0  0  0
   -2.9580   -3.3344    2.1784 H   0  0  0  0  0  0  0  0  0  0  0  0
   -0.7139   -2.2949    1.8925 H   0  0  0  0  0  0  0  0  0  0  0  0
   -5.5940   -2.8426   -1.2485 H   0  0  0  0  0  0  0  0  0  0  0  0
   -6.5814   -3.5407    0.0443 H   0  0  0  0  0  0  0  0  0  0  0  0
   -6.7188   -1.2440    0.4863 H   0  0  0  0  0  0  0  0  0  0  0  0
   -5.5308   -1.8064    1.6337 H   0  0  0  0  0  0  0  0  0  0  0  0
   -3.6936   -0.8444    0.2116 H   0  0  0  0  0  0  0  0  0  0  0  0
   -4.8614   -0.4587   -1.0455 H   0  0  0  0  0  0  0  0  0  0  0  0
   -4.4101    2.7068    0.8288 H   0  0  0  0  0  0  0  0  0  0  0  0
   -3.3664    1.1319   -1.4139 H   0  0  0  0  0  0  0  0  0  0  0  0
   -1.6165   -0.1366   -1.0970 H   0  0  0  0  0  0  0  0  0  0  0  0
   -2.2986    3.2729   -2.0368 H   0  0  0  0  0  0  0  0  0  0  0  0
   -4.0503    3.4217   -1.8146 H   0  0  0  0  0  0  0  0  0  0  0  0
   -0.9970    4.7352   -0.7823 H   0  0  0  0  0  0  0  0  0  0  0  0
   -1.6735    5.7848    0.3838 H   0  0  0  0  0  0  0  0  0  0  0  0
    1.0451    1.9926    0.1206 H   0  0  0  0  0  0  0  0  0  0  0  0
    0.5297    1.3008   -2.0938 H   0  0  0  0  0  0  0  0  0  0  0  0
    3.3306    1.5303    0.1966 H   0  0  0  0  0  0  0  0  0  0  0  0
    2.6001    0.2492    1.1871 H   0  0  0  0  0  0  0  0  0  0  0  0
    3.3727   -0.1557   -1.6480 H   0  0  0  0  0  0  0  0  0  0  0  0
    5.2515    0.0421    2.2858 H   0  0  0  0  0  0  0  0  0  0  0  0
    7.1396    1.6100    2.7304 H   0  0  0  0  0  0  0  0  0  0  0  0
    8.7956    2.0809    0.9476 H   0  0  0  0  0  0  0  0  0  0  0  0
    8.5819    0.9955   -1.2710 H   0  0  0  0  0  0  0  0  0  0  0  0
    6.6848   -0.5622   -1.7119 H   0  0  0  0  0  0  0  0  0  0  0  0
  1 37  1  1  0  0  0
  2  3  1  0  0  0  0
  2  1  1  0  0  0  0
  2 38  1  0  0  0  0
  3  8  2  0  0  0  0
  4  5  2  0  0  0  0
  4  3  1  0  0  0  0
  5  6  1  0  0  0  0
  6  9  1  0  0  0  0
  6  7  2  0  0  0  0
  7 42  1  0  0  0  0
  8  7  1  0  0  0  0
  8 43  1  0  0  0  0
 10 45  1  0  0  0  0
 10  9  1  0  0  0  0
 10 11  1  0  0  0  0
 11 47  1  0  0  0  0
 12 48  1  0  0  0  0
 12 11  1  0  0  0  0
 12 13  1  0  0  0  0
 13 14  2  0  0  0  0
 15 13  1  0  0  0  0
 15 50  1  0  0  0  0
 16 51  1  6  0  0  0
 16 17  1  0  0  0  0
 16 15  1  0  0  0  0
 17 18  2  0  0  0  0
 19 17  1  0  0  0  0
 19  1  1  0  0  0  0
 20 16  1  0  0  0  0
 20 21  1  0  0  0  0
 21 22  2  0  0  0  0
 23 21  1  0  0  0  0
 23 56  1  0  0  0  0
 24  1  1  0  0  0  0
 24 57  1  1  0  0  0
 24 26  1  0  0  0  0
 25 24  1  0  0  0  0
 26 59  1  0  0  0  0
 26 60  1  0  0  0  0
 27 28  1  0  0  0  0
 27 26  1  0  0  0  0
 28 31  1  0  0  0  0
 28 29  2  0  0  0  0
 30 28  2  0  0  0  0
 31 32  2  0  0  0  0
 32 33  1  0  0  0  0
 32 62  1  0  0  0  0
 33 63  1  0  0  0  0
 34 64  1  0  0  0  0
 34 33  2  0  0  0  0
 35 34  1  0  0  0  0
 36 35  2  0  0  0  0
 36 31  1  0  0  0  0
 39  2  1  0  0  0  0
 40  4  1  0  0  0  0
 41  5  1  0  0  0  0
 44 10  1  0  0  0  0
 46 11  1  0  0  0  0
 49 12  1  0  0  0  0
 52 19  1  0  0  0  0
 53 20  1  0  0  0  0
 54 20  1  0  0  0  0
 55 23  1  0  0  0  0
 58 25  1  0  0  0  0
 61 27  1  0  0  0  0
 65 35  1  0  0  0  0
 66 36  1  0  0  0  0
M  END
