omegapdb_2f7p_00.log
 OpenBabel09261812563D

 34 35  0  0  1  0  0  0  0  0999 V2000
    1.1507   -0.3342   -0.8185 C   0  0  1  0  0  0  0  0  0  0  0  0
   -0.2137    0.0146   -0.4330 N   0  0  0  0  0  0  0  0  0  0  0  0
   -1.2140   -1.0008   -0.7587 C   0  0  0  0  0  0  0  0  0  0  0  0
   -2.5954   -0.5533   -0.3395 C   0  0  0  0  0  0  0  0  0  0  0  0
   -3.1300    0.6365   -0.8404 C   0  0  0  0  0  0  0  0  0  0  0  0
   -4.4006    1.0538   -0.4644 C   0  0  0  0  0  0  0  0  0  0  0  0
   -5.1556    0.2854    0.4203 C   0  0  0  0  0  0  0  0  0  0  0  0
   -4.6309   -0.8983    0.9259 C   0  0  0  0  0  0  0  0  0  0  0  0
   -3.3553   -1.3123    0.5476 C   0  0  0  0  0  0  0  0  0  0  0  0
    1.9746    0.9748   -1.0051 C   0  0  1  0  0  0  0  0  0  0  0  0
    1.1381    2.0785   -1.2601 O   0  0  0  0  0  0  0  0  0  0  0  0
    2.7758    1.1784    0.3243 C   0  0  1  0  0  0  0  0  0  0  0  0
    2.4209    2.3912    0.9482 O   0  0  0  0  0  0  0  0  0  0  0  0
    2.3868   -0.0144    1.2373 C   0  0  1  0  0  0  0  0  0  0  0  0
    1.2840    0.3581    2.0392 O   0  0  0  0  0  0  0  0  0  0  0  0
    1.9184   -1.1103    0.2720 C   0  0  2  0  0  0  0  0  0  0  0  0
    3.3115   -1.9846   -0.5170 S   0  0  0  0  0  0  0  0  0  0  0  0
    1.0964   -0.8948   -1.7588 H   0  0  0  0  0  0  0  0  0  0  0  0
   -0.2249    0.1976    0.5705 H   0  0  0  0  0  0  0  0  0  0  0  0
   -0.9883   -1.9740   -0.2913 H   0  0  0  0  0  0  0  0  0  0  0  0
   -1.1853   -1.1574   -1.8449 H   0  0  0  0  0  0  0  0  0  0  0  0
   -2.5387    1.2368   -1.5286 H   0  0  0  0  0  0  0  0  0  0  0  0
   -4.8066    1.9799   -0.8638 H   0  0  0  0  0  0  0  0  0  0  0  0
   -6.1501    0.6116    0.7140 H   0  0  0  0  0  0  0  0  0  0  0  0
   -5.2123   -1.5018    1.6183 H   0  0  0  0  0  0  0  0  0  0  0  0
   -2.9451   -2.2371    0.9494 H   0  0  0  0  0  0  0  0  0  0  0  0
    2.6727    0.8658   -1.8406 H   0  0  0  0  0  0  0  0  0  0  0  0
    0.2340    1.7270   -1.0894 H   0  0  0  0  0  0  0  0  0  0  0  0
    3.8531    1.1667    0.1270 H   0  0  0  0  0  0  0  0  0  0  0  0
    1.8208    2.8210    0.3051 H   0  0  0  0  0  0  0  0  0  0  0  0
    3.2225   -0.3443    1.8712 H   0  0  0  0  0  0  0  0  0  0  0  0
    1.3911    1.3235    2.1458 H   0  0  0  0  0  0  0  0  0  0  0  0
    1.2737   -1.8331    0.7808 H   0  0  0  0  0  0  0  0  0  0  0  0
    3.9088   -2.3896    0.6141 H   0  0  0  0  0  0  0  0  0  0  0  0
  1 10  1  6  0  0  0
  1  2  1  0  0  0  0
  2 19  1  0  0  0  0
  3  2  1  0  0  0  0
  3  4  1  0  0  0  0
  3 20  1  0  0  0  0
  4  9  2  0  0  0  0
  5  6  2  0  0  0  0
  5  4  1  0  0  0  0
  6  7  1  0  0  0  0
  7 24  1  0  0  0  0
  7  8  2  0  0  0  0
  8 25  1  0  0  0  0
  9  8  1  0  0  0  0
  9 26  1  0  0  0  0
 10 12  1  1  0  0  0
 11 28  1  0  0  0  0
 11 10  1  0  0  0  0
 12 13  1  0  0  0  0
 12 14  1  1  0  0  0
 14 16  1  6  0  0  0
 14 31  1  0  0  0  0
 14 15  1  0  0  0  0
 15 32  1  0  0  0  0
 16  1  1  6  0  0  0
 16 33  1  0  0  0  0
 17 16  1  0  0  0  0
 17 34  1  0  0  0  0
 18  1  1  0  0  0  0
 21  3  1  0  0  0  0
 22  5  1  0  0  0  0
 23  6  1  0  0  0  0
 27 10  1  0  0  0  0
 29 12  1  0  0  0  0
 30 13  1  0  0  0  0
M  END
