omegapdb_1m5f_16.log
 OpenBabel09261812563D

 25 25  0  0  1  0  0  0  0  0999 V2000
   -0.5216   -2.3895   -0.1958 O   0  0  0  0  0  0  0  0  0  0  0  0
   -1.7581   -1.9004    0.0374 C   0  0  0  0  0  0  0  0  0  0  0  0
   -2.7082   -2.5976    0.2752 O   0  0  0  0  0  0  0  0  0  0  0  0
   -1.7733   -0.4129   -0.0360 C   0  0  0  0  0  0  0  0  0  0  0  0
   -2.9007    0.1951    0.2387 N   0  0  0  0  0  0  0  0  0  0  0  0
   -2.6431    1.5235    0.0994 O   0  0  0  0  0  0  0  0  0  0  0  0
   -1.3575    1.7119   -0.2605 C   0  0  0  0  0  0  0  0  0  0  0  0
   -0.7302    0.5085   -0.3738 C   0  0  0  0  0  0  0  0  0  0  0  0
    0.6992    0.2479   -0.7386 C   0  0  0  0  0  0  0  0  0  0  0  0
    1.5904   -0.0170    0.5045 C   0  0  2  0  0  0  0  0  0  0  0  0
    1.6488    1.0559    1.4752 N   0  0  0  0  0  0  0  0  0  0  0  0
    2.9971   -0.2570   -0.0043 C   0  0  0  0  0  0  0  0  0  0  0  0
    3.8388    0.6023   -0.1156 O   0  0  0  0  0  0  0  0  0  0  0  0
    3.1941   -1.5281   -0.3942 O   0  0  0  0  0  0  0  0  0  0  0  0
   -0.9299    3.1229   -0.4650 C   0  0  0  0  0  0  0  0  0  0  0  0
   -0.5951   -3.3561   -0.1255 H   0  0  0  0  0  0  0  0  0  0  0  0
    0.7606   -0.6096   -1.4155 H   0  0  0  0  0  0  0  0  0  0  0  0
    1.1038    1.1186   -1.2701 H   0  0  0  0  0  0  0  0  0  0  0  0
    1.2354   -0.9327    0.9881 H   0  0  0  0  0  0  0  0  0  0  0  0
    2.2014    1.8230    1.1022 H   0  0  0  0  0  0  0  0  0  0  0  0
    0.7164    1.3943    1.6910 H   0  0  0  0  0  0  0  0  0  0  0  0
    4.0974   -1.5646   -0.7512 H   0  0  0  0  0  0  0  0  0  0  0  0
   -1.4444    3.5644   -1.3244 H   0  0  0  0  0  0  0  0  0  0  0  0
   -1.1661    3.7278    0.4157 H   0  0  0  0  0  0  0  0  0  0  0  0
    0.1472    3.1708   -0.6410 H   0  0  0  0  0  0  0  0  0  0  0  0
  1 16  1  0  0  0  0
  1  2  1  0  0  0  0
  2  3  2  0  0  0  0
  4  2  1  0  0  0  0
  4  5  2  0  0  0  0
  6  5  1  0  0  0  0
  7  6  1  0  0  0  0
  8  7  2  0  0  0  0
  8  4  1  0  0  0  0
  9  8  1  0  0  0  0
  9 10  1  0  0  0  0
 10 19  1  1  0  0  0
 10 11  1  0  0  0  0
 11 21  1  0  0  0  0
 12 10  1  0  0  0  0
 13 12  2  0  0  0  0
 14 12  1  0  0  0  0
 15  7  1  0  0  0  0
 15 24  1  0  0  0  0
 17  9  1  0  0  0  0
 18  9  1  0  0  0  0
 20 11  1  0  0  0  0
 22 14  1  0  0  0  0
 23 15  1  0  0  0  0
 25 15  1  0  0  0  0
M  END
