omegapdb_1v2k_12.log
 OpenBabel09261812563D

 61 65  0  0  0  0  0  0  0  0999 V2000
   -6.0633   -0.7171    1.3950 N   0  0  0  0  0  0  0  0  0  0  0  0
   -5.4300   -1.8658    1.6419 C   0  0  0  0  0  0  0  0  0  0  0  0
   -4.2699   -2.2909    1.0120 C   0  0  0  0  0  0  0  0  0  0  0  0
   -3.6802   -1.4748    0.0272 C   0  0  0  0  0  0  0  0  0  0  0  0
   -4.3562   -0.2705   -0.2549 C   0  0  0  0  0  0  0  0  0  0  0  0
   -5.5073    0.0449    0.4483 C   0  0  0  0  0  0  0  0  0  0  0  0
   -2.5273   -1.8450   -0.6213 N   0  0  0  0  0  0  0  0  0  0  0  0
   -1.9582   -3.1713   -0.3986 C   0  0  0  0  0  0  0  0  0  0  0  0
   -0.8571   -3.4617   -1.4139 C   0  0  0  0  0  0  0  0  0  0  0  0
    0.3073   -2.4609   -1.3229 C   0  0  0  0  0  0  0  0  0  0  0  0
   -0.2294   -1.0545   -0.9492 C   0  0  0  0  0  0  0  0  0  0  0  0
   -1.6994   -0.8769   -1.3231 C   0  0  0  0  0  0  0  0  0  0  0  0
    1.3020   -2.8940   -0.2490 C   0  0  0  0  0  0  0  0  0  0  0  0
    0.9489   -3.6143    0.6766 O   0  0  0  0  0  0  0  0  0  0  0  0
    2.5765   -2.3945   -0.3196 N   0  0  0  0  0  0  0  0  0  0  0  0
    3.4595   -2.5917    0.8211 C   0  0  0  0  0  0  0  0  0  0  0  0
    3.7702   -1.2411    1.4565 C   0  0  0  0  0  0  0  0  0  0  0  0
    4.2636   -0.3271    0.4140 N   0  0  0  0  0  0  0  0  0  0  0  0
    4.3744   -0.8550   -0.9399 C   0  0  0  0  0  0  0  0  0  0  0  0
    3.0758   -1.5320   -1.3913 C   0  0  0  0  0  0  0  0  0  0  0  0
    4.1230    1.2998    0.6619 S   0  0  0  0  0  0  0  0  0  0  0  0
    5.0290    1.9471   -0.2715 O   0  0  0  0  0  0  0  0  0  0  0  0
    4.2059    1.4850    2.0988 O   0  0  0  0  0  0  0  0  0  0  0  0
    2.4758    1.7748    0.1600 C   0  0  0  0  0  0  0  0  0  0  0  0
    1.4361    1.6857    1.0483 C   0  0  0  0  0  0  0  0  0  0  0  0
    0.1265    2.0640    0.6481 C   0  0  0  0  0  0  0  0  0  0  0  0
   -0.0777    2.5630   -0.6648 C   0  0  0  0  0  0  0  0  0  0  0  0
    1.0290    2.6477   -1.5546 C   0  0  0  0  0  0  0  0  0  0  0  0
    2.2791    2.2591   -1.1586 C   0  0  0  0  0  0  0  0  0  0  0  0
   -1.3787    2.9754   -1.0571 C   0  0  0  0  0  0  0  0  0  0  0  0
   -2.4190    2.8708   -0.1749 C   0  0  0  0  0  0  0  0  0  0  0  0
   -2.2384    2.3421    1.1270 C   0  0  0  0  0  0  0  0  0  0  0  0
   -0.9872    1.9584    1.5258 C   0  0  0  0  0  0  0  0  0  0  0  0
   -4.0072    3.3912   -0.6481 Cl  0  0  0  0  0  0  0  0  0  0  0  0
   -5.8754   -2.4981    2.4099 H   0  0  0  0  0  0  0  0  0  0  0  0
   -3.8227   -3.2327    1.3090 H   0  0  0  0  0  0  0  0  0  0  0  0
   -4.0169    0.4053   -1.0327 H   0  0  0  0  0  0  0  0  0  0  0  0
   -6.0211    0.9801    0.2251 H   0  0  0  0  0  0  0  0  0  0  0  0
   -1.5469   -3.2721    0.6152 H   0  0  0  0  0  0  0  0  0  0  0  0
   -2.7542   -3.9174   -0.5100 H   0  0  0  0  0  0  0  0  0  0  0  0
   -0.4910   -4.4783   -1.2479 H   0  0  0  0  0  0  0  0  0  0  0  0
   -1.2849   -3.4253   -2.4228 H   0  0  0  0  0  0  0  0  0  0  0  0
    0.8071   -2.4124   -2.2977 H   0  0  0  0  0  0  0  0  0  0  0  0
    0.3547   -0.2609   -1.4289 H   0  0  0  0  0  0  0  0  0  0  0  0
   -0.1432   -0.9003    0.1340 H   0  0  0  0  0  0  0  0  0  0  0  0
   -2.0026    0.1316   -1.0312 H   0  0  0  0  0  0  0  0  0  0  0  0
   -1.8284   -0.9510   -2.4145 H   0  0  0  0  0  0  0  0  0  0  0  0
    2.9368   -3.2318    1.5316 H   0  0  0  0  0  0  0  0  0  0  0  0
    4.3766   -3.1075    0.5135 H   0  0  0  0  0  0  0  0  0  0  0  0
    2.8476   -0.8477    1.9008 H   0  0  0  0  0  0  0  0  0  0  0  0
    4.5142   -1.3382    2.2535 H   0  0  0  0  0  0  0  0  0  0  0  0
    5.2095   -1.5633   -0.9725 H   0  0  0  0  0  0  0  0  0  0  0  0
    4.6356   -0.0384   -1.6162 H   0  0  0  0  0  0  0  0  0  0  0  0
    3.2702   -2.1077   -2.3072 H   0  0  0  0  0  0  0  0  0  0  0  0
    2.3390   -0.7589   -1.6293 H   0  0  0  0  0  0  0  0  0  0  0  0
    1.6145    1.3605    2.0706 H   0  0  0  0  0  0  0  0  0  0  0  0
    0.8704    3.0466   -2.5539 H   0  0  0  0  0  0  0  0  0  0  0  0
    3.1356    2.3573   -1.8188 H   0  0  0  0  0  0  0  0  0  0  0  0
   -1.5397    3.3794   -2.0528 H   0  0  0  0  0  0  0  0  0  0  0  0
   -3.0944    2.2492    1.7878 H   0  0  0  0  0  0  0  0  0  0  0  0
   -0.8344    1.5608    2.5261 H   0  0  0  0  0  0  0  0  0  0  0  0
  1  2  1  0  0  0  0
  2 35  1  0  0  0  0
  3 36  1  0  0  0  0
  3  2  2  0  0  0  0
  4  3  1  0  0  0  0
  5  4  2  0  0  0  0
  5  6  1  0  0  0  0
  6  1  2  0  0  0  0
  7  8  1  0  0  0  0
  7  4  1  0  0  0  0
  8 39  1  0  0  0  0
  9 10  1  0  0  0  0
  9 41  1  0  0  0  0
  9  8  1  0  0  0  0
 10 11  1  0  0  0  0
 10 13  1  0  0  0  0
 11 45  1  0  0  0  0
 12 46  1  0  0  0  0
 12 11  1  0  0  0  0
 12  7  1  0  0  0  0
 13 14  2  0  0  0  0
 15 13  1  0  0  0  0
 15 16  1  0  0  0  0
 16 17  1  0  0  0  0
 16 48  1  0  0  0  0
 17 50  1  0  0  0  0
 17 51  1  0  0  0  0
 18 21  1  0  0  0  0
 18 17  1  0  0  0  0
 19 18  1  0  0  0  0
 20 19  1  0  0  0  0
 20 15  1  0  0  0  0
 21 23  2  0  0  0  0
 22 21  2  0  0  0  0
 24 21  1  0  0  0  0
 24 25  2  0  0  0  0
 25 56  1  0  0  0  0
 26 25  1  0  0  0  0
 26 33  2  0  0  0  0
 27 26  1  0  0  0  0
 28 29  2  0  0  0  0
 28 27  1  0  0  0  0
 29 24  1  0  0  0  0
 30 27  2  0  0  0  0
 30 31  1  0  0  0  0
 31 32  2  0  0  0  0
 32 33  1  0  0  0  0
 32 60  1  0  0  0  0
 33 61  1  0  0  0  0
 34 31  1  0  0  0  0
 37  5  1  0  0  0  0
 38  6  1  0  0  0  0
 40  8  1  0  0  0  0
 42  9  1  0  0  0  0
 43 10  1  0  0  0  0
 44 11  1  0  0  0  0
 47 12  1  0  0  0  0
 49 16  1  0  0  0  0
 52 19  1  0  0  0  0
 53 19  1  0  0  0  0
 54 20  1  0  0  0  0
 55 20  1  0  0  0  0
 57 28  1  0  0  0  0
 58 29  1  0  0  0  0
 59 30  1  0  0  0  0
M  END
