omegapdb_1qxw_07.log
 OpenBabel09261812563D

 36 36  0  0  1  0  0  0  0  0999 V2000
   -3.8581   -0.1817    0.2761 C   0  0  0  0  0  0  0  0  0  0  0  0
   -4.0527   -1.6588    0.4694 C   0  0  0  0  0  0  0  0  0  0  0  0
   -3.0375   -1.1507   -0.5131 C   0  0  0  0  0  0  0  0  0  0  0  0
   -1.6478   -1.3162   -0.1669 N   0  0  0  0  0  0  0  0  0  0  0  0
   -0.7095   -0.4482   -0.8796 C   0  0  0  0  0  0  0  0  0  0  0  0
   -0.4251    0.8247   -0.0533 C   0  0  0  0  0  0  0  0  0  0  0  0
    0.8972    1.5493   -0.4289 C   0  0  1  0  0  0  0  0  0  0  0  0
    0.7433    2.9501   -0.0036 N   0  0  0  0  0  0  0  0  0  0  0  0
    2.1816    0.9464    0.1587 C   0  0  0  0  0  0  0  0  0  0  0  0
    2.5328   -0.5016   -0.1799 C   0  0  0  0  0  0  0  0  0  0  0  0
    3.9488   -0.8714    0.2626 C   0  0  0  0  0  0  0  0  0  0  0  0
    4.2939   -2.3304   -0.0243 C   0  0  0  0  0  0  0  0  0  0  0  0
   -0.3320    0.4869    1.3070 O   0  0  0  0  0  0  0  0  0  0  0  0
   -1.4978    1.6902   -0.3079 O   0  0  0  0  0  0  0  0  0  0  0  0
   -4.6217    0.3805   -0.2529 H   0  0  0  0  0  0  0  0  0  0  0  0
   -3.3379    0.3802    1.0441 H   0  0  0  0  0  0  0  0  0  0  0  0
   -3.6683   -2.1013    1.3843 H   0  0  0  0  0  0  0  0  0  0  0  0
   -4.9543   -2.1250    0.0824 H   0  0  0  0  0  0  0  0  0  0  0  0
   -3.2810   -1.2489   -1.5749 H   0  0  0  0  0  0  0  0  0  0  0  0
   -1.3857   -2.2878   -0.2886 H   0  0  0  0  0  0  0  0  0  0  0  0
   -1.0895   -0.1382   -1.8626 H   0  0  0  0  0  0  0  0  0  0  0  0
    0.2163   -1.0061   -1.0314 H   0  0  0  0  0  0  0  0  0  0  0  0
    0.9536    1.5575   -1.5266 H   0  0  0  0  0  0  0  0  0  0  0  0
    0.9574    3.0213    0.9887 H   0  0  0  0  0  0  0  0  0  0  0  0
    1.3991    3.5487   -0.4947 H   0  0  0  0  0  0  0  0  0  0  0  0
    2.1212    1.0419    1.2501 H   0  0  0  0  0  0  0  0  0  0  0  0
    3.0112    1.5905   -0.1706 H   0  0  0  0  0  0  0  0  0  0  0  0
    2.4412   -0.6758   -1.2630 H   0  0  0  0  0  0  0  0  0  0  0  0
    1.8198   -1.1727    0.3157 H   0  0  0  0  0  0  0  0  0  0  0  0
    4.6696   -0.2145   -0.2437 H   0  0  0  0  0  0  0  0  0  0  0  0
    4.0543   -0.6716    1.3377 H   0  0  0  0  0  0  0  0  0  0  0  0
    4.2103   -2.5507   -1.0953 H   0  0  0  0  0  0  0  0  0  0  0  0
    5.3158   -2.5707    0.2875 H   0  0  0  0  0  0  0  0  0  0  0  0
    3.6141   -3.0065    0.5074 H   0  0  0  0  0  0  0  0  0  0  0  0
   -0.9641   -0.2513    1.4074 H   0  0  0  0  0  0  0  0  0  0  0  0
   -1.1386    2.5808   -0.1256 H   0  0  0  0  0  0  0  0  0  0  0  0
  1  2  1  0  0  0  0
  1 16  1  0  0  0  0
  2 17  1  0  0  0  0
  3  4  1  0  0  0  0
  3  1  1  0  0  0  0
  3  2  1  0  0  0  0
  5  4  1  0  0  0  0
  5  6  1  0  0  0  0
  6 13  1  0  0  0  0
  7 23  1  6  0  0  0
  7  6  1  0  0  0  0
  7  8  1  0  0  0  0
  7  9  1  0  0  0  0
  8 24  1  0  0  0  0
  9 26  1  0  0  0  0
 10  9  1  0  0  0  0
 10 11  1  0  0  0  0
 10 29  1  0  0  0  0
 11 31  1  0  0  0  0
 12 11  1  0  0  0  0
 12 33  1  0  0  0  0
 12 34  1  0  0  0  0
 13 35  1  0  0  0  0
 14 36  1  0  0  0  0
 14  6  1  0  0  0  0
 15  1  1  0  0  0  0
 18  2  1  0  0  0  0
 19  3  1  0  0  0  0
 20  4  1  0  0  0  0
 21  5  1  0  0  0  0
 22  5  1  0  0  0  0
 25  8  1  0  0  0  0
 27  9  1  0  0  0  0
 28 10  1  0  0  0  0
 30 11  1  0  0  0  0
 32 12  1  0  0  0  0
M  END
