omegapdb_1qxw_05.log
 OpenBabel09261812563D

 36 36  0  0  1  0  0  0  0  0999 V2000
   -4.9649   -0.6973   -0.0288 C   0  0  0  0  0  0  0  0  0  0  0  0
   -4.0586   -1.7530   -0.6121 C   0  0  0  0  0  0  0  0  0  0  0  0
   -3.5758   -0.8505    0.4956 C   0  0  0  0  0  0  0  0  0  0  0  0
   -2.6093    0.1877    0.2608 N   0  0  0  0  0  0  0  0  0  0  0  0
   -1.2579   -0.3077    0.0293 C   0  0  0  0  0  0  0  0  0  0  0  0
   -0.3424    0.9106   -0.0697 C   0  0  0  0  0  0  0  0  0  0  0  0
    1.1546    0.6038   -0.2560 C   0  0  1  0  0  0  0  0  0  0  0  0
    1.7824    1.8996   -0.5374 N   0  0  0  0  0  0  0  0  0  0  0  0
    1.7663   -0.1650    0.9213 C   0  0  0  0  0  0  0  0  0  0  0  0
    3.2746   -0.4014    0.8100 C   0  0  0  0  0  0  0  0  0  0  0  0
    3.6965   -1.2505   -0.3901 C   0  0  0  0  0  0  0  0  0  0  0  0
    5.1938   -1.5490   -0.3967 C   0  0  0  0  0  0  0  0  0  0  0  0
   -0.4526    1.6759    1.1070 O   0  0  0  0  0  0  0  0  0  0  0  0
   -0.7964    1.6311   -1.1888 O   0  0  0  0  0  0  0  0  0  0  0  0
   -5.7939   -1.0090    0.5998 H   0  0  0  0  0  0  0  0  0  0  0  0
   -5.1782    0.1767   -0.6402 H   0  0  0  0  0  0  0  0  0  0  0  0
   -3.6623   -1.5741   -1.6091 H   0  0  0  0  0  0  0  0  0  0  0  0
   -4.2655   -2.7964   -0.3904 H   0  0  0  0  0  0  0  0  0  0  0  0
   -3.4710   -1.3037    1.4804 H   0  0  0  0  0  0  0  0  0  0  0  0
   -2.8792    0.7574   -0.5373 H   0  0  0  0  0  0  0  0  0  0  0  0
   -1.1668   -0.9229   -0.8807 H   0  0  0  0  0  0  0  0  0  0  0  0
   -0.9675   -0.9215    0.8891 H   0  0  0  0  0  0  0  0  0  0  0  0
    1.2332    0.0087   -1.1749 H   0  0  0  0  0  0  0  0  0  0  0  0
    1.8377    2.4378    0.3243 H   0  0  0  0  0  0  0  0  0  0  0  0
    2.7263    1.7801   -0.8898 H   0  0  0  0  0  0  0  0  0  0  0  0
    1.5428    0.3888    1.8412 H   0  0  0  0  0  0  0  0  0  0  0  0
    1.2653   -1.1390    1.0131 H   0  0  0  0  0  0  0  0  0  0  0  0
    3.6196   -0.8937    1.7293 H   0  0  0  0  0  0  0  0  0  0  0  0
    3.8011    0.5635    0.7756 H   0  0  0  0  0  0  0  0  0  0  0  0
    3.1313   -2.1930   -0.3810 H   0  0  0  0  0  0  0  0  0  0  0  0
    3.4247   -0.7436   -1.3265 H   0  0  0  0  0  0  0  0  0  0  0  0
    5.4808   -2.1535   -1.2635 H   0  0  0  0  0  0  0  0  0  0  0  0
    5.4884   -2.0961    0.5066 H   0  0  0  0  0  0  0  0  0  0  0  0
    5.7791   -0.6221   -0.4263 H   0  0  0  0  0  0  0  0  0  0  0  0
   -1.4065    1.6849    1.2996 H   0  0  0  0  0  0  0  0  0  0  0  0
   -0.0754    2.2639   -1.3659 H   0  0  0  0  0  0  0  0  0  0  0  0
  1  3  1  0  0  0  0
  1 15  1  0  0  0  0
  2 18  1  0  0  0  0
  2  1  1  0  0  0  0
  2  3  1  0  0  0  0
  3 19  1  0  0  0  0
  4  3  1  0  0  0  0
  5  4  1  0  0  0  0
  5 22  1  0  0  0  0
  6  5  1  0  0  0  0
  6 13  1  0  0  0  0
  7 23  1  6  0  0  0
  7  6  1  0  0  0  0
  7  9  1  0  0  0  0
  8  7  1  0  0  0  0
  8 24  1  0  0  0  0
  9 27  1  0  0  0  0
  9 26  1  0  0  0  0
 10  9  1  0  0  0  0
 10 28  1  0  0  0  0
 11 30  1  0  0  0  0
 11 10  1  0  0  0  0
 12 11  1  0  0  0  0
 12 33  1  0  0  0  0
 13 35  1  0  0  0  0
 14  6  1  0  0  0  0
 16  1  1  0  0  0  0
 17  2  1  0  0  0  0
 20  4  1  0  0  0  0
 21  5  1  0  0  0  0
 25  8  1  0  0  0  0
 29 10  1  0  0  0  0
 31 11  1  0  0  0  0
 32 12  1  0  0  0  0
 34 12  1  0  0  0  0
 36 14  1  0  0  0  0
M  END
