omegapdb_1gs5_19.log
 OpenBabel09261812563D

 24 23  0  0  1  0  0  0  0  0999 V2000
    0.8222   -0.5551    0.2851 C   0  0  2  0  0  0  0  0  0  0  0  0
    1.7108   -1.7705    0.0153 C   0  0  0  0  0  0  0  0  0  0  0  0
    2.6305   -1.7550   -0.7613 O   0  0  0  0  0  0  0  0  0  0  0  0
    1.3953   -2.8908    0.6840 O   0  0  0  0  0  0  0  0  0  0  0  0
   -0.6239   -0.8471   -0.1514 C   0  0  0  0  0  0  0  0  0  0  0  0
   -1.5538    0.3370    0.0757 C   0  0  0  0  0  0  0  0  0  0  0  0
   -3.0048   -0.0404   -0.1550 C   0  0  0  0  0  0  0  0  0  0  0  0
   -3.3889   -1.1549   -0.3922 O   0  0  0  0  0  0  0  0  0  0  0  0
   -3.8853    0.9805   -0.0645 O   0  0  0  0  0  0  0  0  0  0  0  0
    1.4110    0.5712   -0.4028 N   0  0  0  0  0  0  0  0  0  0  0  0
    1.4234    1.8124    0.1684 C   0  0  0  0  0  0  0  0  0  0  0  0
    0.7540    2.0802    1.1559 O   0  0  0  0  0  0  0  0  0  0  0  0
    2.3281    2.8232   -0.5023 C   0  0  0  0  0  0  0  0  0  0  0  0
    0.8308   -0.3340    1.3622 H   0  0  0  0  0  0  0  0  0  0  0  0
    0.6409   -2.7391    1.2711 H   0  0  0  0  0  0  0  0  0  0  0  0
   -0.6342   -1.1270   -1.2111 H   0  0  0  0  0  0  0  0  0  0  0  0
   -1.0248   -1.7101    0.3938 H   0  0  0  0  0  0  0  0  0  0  0  0
   -1.4412    0.7328    1.0930 H   0  0  0  0  0  0  0  0  0  0  0  0
   -1.2867    1.1651   -0.5924 H   0  0  0  0  0  0  0  0  0  0  0  0
   -3.4196    1.8037    0.1403 H   0  0  0  0  0  0  0  0  0  0  0  0
    2.1232    0.3244   -1.0799 H   0  0  0  0  0  0  0  0  0  0  0  0
    2.4972    2.6017   -1.5598 H   0  0  0  0  0  0  0  0  0  0  0  0
    3.2958    2.8303    0.0103 H   0  0  0  0  0  0  0  0  0  0  0  0
    1.8854    3.8153   -0.3992 H   0  0  0  0  0  0  0  0  0  0  0  0
  1 14  1  1  0  0  0
  2  1  1  0  0  0  0
  2  4  1  0  0  0  0
  3  2  2  0  0  0  0
  4 15  1  0  0  0  0
  5  6  1  0  0  0  0
  5  1  1  0  0  0  0
  5 17  1  0  0  0  0
  6 18  1  0  0  0  0
  7  9  1  0  0  0  0
  7  6  1  0  0  0  0
  8  7  2  0  0  0  0
  9 20  1  0  0  0  0
 10 11  1  0  0  0  0
 10  1  1  0  0  0  0
 11 12  2  0  0  0  0
 13 24  1  0  0  0  0
 13 23  1  0  0  0  0
 13 11  1  0  0  0  0
 16  5  1  0  0  0  0
 19  6  1  0  0  0  0
 21 10  1  0  0  0  0
 22 13  1  0  0  0  0
M  END
