omegapdb_1qxw_16.log
 OpenBabel09261812563D

 36 36  0  0  1  0  0  0  0  0999 V2000
   -3.5029   -2.2578    0.4856 C   0  0  0  0  0  0  0  0  0  0  0  0
   -4.0288   -1.2774   -0.5342 C   0  0  0  0  0  0  0  0  0  0  0  0
   -2.5471   -1.5073   -0.3815 C   0  0  0  0  0  0  0  0  0  0  0  0
   -1.6765   -0.5182    0.1982 N   0  0  0  0  0  0  0  0  0  0  0  0
   -1.4702    0.6344   -0.6708 C   0  0  0  0  0  0  0  0  0  0  0  0
   -0.5089    1.6273   -0.0197 C   0  0  0  0  0  0  0  0  0  0  0  0
    0.8978    1.0513    0.3123 C   0  0  1  0  0  0  0  0  0  0  0  0
    0.8068    0.3272    1.5847 N   0  0  0  0  0  0  0  0  0  0  0  0
    1.5190    0.2992   -0.8674 C   0  0  0  0  0  0  0  0  0  0  0  0
    3.0034   -0.0586   -0.6946 C   0  0  0  0  0  0  0  0  0  0  0  0
    3.2664   -1.4073   -0.0190 C   0  0  0  0  0  0  0  0  0  0  0  0
    4.7556   -1.7123    0.1184 C   0  0  0  0  0  0  0  0  0  0  0  0
   -0.3856    2.6891   -0.9349 O   0  0  0  0  0  0  0  0  0  0  0  0
   -1.0729    2.1124    1.1740 O   0  0  0  0  0  0  0  0  0  0  0  0
   -3.5632   -1.9728    1.5338 H   0  0  0  0  0  0  0  0  0  0  0  0
   -3.6407   -3.3206    0.3096 H   0  0  0  0  0  0  0  0  0  0  0  0
   -4.4296   -0.3375   -0.1615 H   0  0  0  0  0  0  0  0  0  0  0  0
   -4.5342   -1.6643   -1.4147 H   0  0  0  0  0  0  0  0  0  0  0  0
   -2.0611   -2.0724   -1.1759 H   0  0  0  0  0  0  0  0  0  0  0  0
   -2.0779   -0.1761    1.0690 H   0  0  0  0  0  0  0  0  0  0  0  0
   -1.0589    0.2905   -1.6262 H   0  0  0  0  0  0  0  0  0  0  0  0
   -2.4004    1.1809   -0.8914 H   0  0  0  0  0  0  0  0  0  0  0  0
    1.5169    1.9393    0.5106 H   0  0  0  0  0  0  0  0  0  0  0  0
    1.7265    0.1669    1.9815 H   0  0  0  0  0  0  0  0  0  0  0  0
    0.3555   -0.5713    1.4216 H   0  0  0  0  0  0  0  0  0  0  0  0
    1.3955    0.9369   -1.7513 H   0  0  0  0  0  0  0  0  0  0  0  0
    0.9435   -0.6189   -1.0528 H   0  0  0  0  0  0  0  0  0  0  0  0
    3.4841   -0.0798   -1.6817 H   0  0  0  0  0  0  0  0  0  0  0  0
    3.5149    0.7395   -0.1343 H   0  0  0  0  0  0  0  0  0  0  0  0
    2.7923   -1.4378    0.9703 H   0  0  0  0  0  0  0  0  0  0  0  0
    2.7803   -2.1979   -0.6069 H   0  0  0  0  0  0  0  0  0  0  0  0
    4.9251   -2.6870    0.5879 H   0  0  0  0  0  0  0  0  0  0  0  0
    5.2453   -1.7233   -0.8626 H   0  0  0  0  0  0  0  0  0  0  0  0
    5.2593   -0.9539    0.7296 H   0  0  0  0  0  0  0  0  0  0  0  0
   -0.1684    3.4646   -0.3993 H   0  0  0  0  0  0  0  0  0  0  0  0
   -0.5546    1.6715    1.8793 H   0  0  0  0  0  0  0  0  0  0  0  0
  1 15  1  0  0  0  0
  2  3  1  0  0  0  0
  2 17  1  0  0  0  0
  2  1  1  0  0  0  0
  3  4  1  0  0  0  0
  3  1  1  0  0  0  0
  4 20  1  0  0  0  0
  5  6  1  0  0  0  0
  5  4  1  0  0  0  0
  6  7  1  0  0  0  0
  6 14  1  0  0  0  0
  7 23  1  1  0  0  0
  7  8  1  0  0  0  0
  8 24  1  0  0  0  0
  9 10  1  0  0  0  0
  9  7  1  0  0  0  0
 10 29  1  0  0  0  0
 10 11  1  0  0  0  0
 11 12  1  0  0  0  0
 11 30  1  0  0  0  0
 12 32  1  0  0  0  0
 12 34  1  0  0  0  0
 13 35  1  0  0  0  0
 13  6  1  0  0  0  0
 14 36  1  0  0  0  0
 16  1  1  0  0  0  0
 18  2  1  0  0  0  0
 19  3  1  0  0  0  0
 21  5  1  0  0  0  0
 22  5  1  0  0  0  0
 25  8  1  0  0  0  0
 26  9  1  0  0  0  0
 27  9  1  0  0  0  0
 28 10  1  0  0  0  0
 31 11  1  0  0  0  0
 33 12  1  0  0  0  0
M  END
