omegapdb_1qxw_10.log
 OpenBabel09261812563D

 36 36  0  0  1  0  0  0  0  0999 V2000
   -4.0710    0.6683   -0.0688 C   0  0  0  0  0  0  0  0  0  0  0  0
   -4.8136   -0.6048    0.2237 C   0  0  0  0  0  0  0  0  0  0  0  0
   -3.5449   -0.6363   -0.5763 C   0  0  0  0  0  0  0  0  0  0  0  0
   -2.3806   -1.2051    0.0576 N   0  0  0  0  0  0  0  0  0  0  0  0
   -1.1030   -0.9093   -0.5899 C   0  0  0  0  0  0  0  0  0  0  0  0
   -0.4864    0.3729   -0.0028 C   0  0  0  0  0  0  0  0  0  0  0  0
    1.0478    0.4479   -0.1924 C   0  0  1  0  0  0  0  0  0  0  0  0
    1.5699    1.7967    0.0137 N   0  0  0  0  0  0  0  0  0  0  0  0
    1.8006   -0.5384    0.7110 C   0  0  0  0  0  0  0  0  0  0  0  0
    3.1462   -1.0188    0.1586 C   0  0  0  0  0  0  0  0  0  0  0  0
    4.2239    0.0568    0.0203 C   0  0  0  0  0  0  0  0  0  0  0  0
    5.5469   -0.5187   -0.4793 C   0  0  0  0  0  0  0  0  0  0  0  0
   -1.1012    1.4554   -0.6974 O   0  0  0  0  0  0  0  0  0  0  0  0
   -0.7746    0.4682    1.3608 O   0  0  0  0  0  0  0  0  0  0  0  0
   -3.5207    1.1316    0.7440 H   0  0  0  0  0  0  0  0  0  0  0  0
   -4.4860    1.3653   -0.7905 H   0  0  0  0  0  0  0  0  0  0  0  0
   -5.7512   -0.7955   -0.2902 H   0  0  0  0  0  0  0  0  0  0  0  0
   -4.7639   -0.9923    1.2377 H   0  0  0  0  0  0  0  0  0  0  0  0
   -3.6385   -0.8151   -1.6507 H   0  0  0  0  0  0  0  0  0  0  0  0
   -2.5013   -2.2080    0.1448 H   0  0  0  0  0  0  0  0  0  0  0  0
   -0.4285   -1.7511   -0.4062 H   0  0  0  0  0  0  0  0  0  0  0  0
   -1.1980   -0.7793   -1.6771 H   0  0  0  0  0  0  0  0  0  0  0  0
    1.2403    0.1925   -1.2461 H   0  0  0  0  0  0  0  0  0  0  0  0
    1.3723    2.0823    0.9709 H   0  0  0  0  0  0  0  0  0  0  0  0
    1.0717    2.4371   -0.5986 H   0  0  0  0  0  0  0  0  0  0  0  0
    1.9448   -0.0652    1.6913 H   0  0  0  0  0  0  0  0  0  0  0  0
    1.1738   -1.4169    0.9049 H   0  0  0  0  0  0  0  0  0  0  0  0
    2.9831   -1.4941   -0.8212 H   0  0  0  0  0  0  0  0  0  0  0  0
    3.5258   -1.8136    0.8175 H   0  0  0  0  0  0  0  0  0  0  0  0
    4.3729    0.5402    0.9957 H   0  0  0  0  0  0  0  0  0  0  0  0
    3.8723    0.8490   -0.6484 H   0  0  0  0  0  0  0  0  0  0  0  0
    5.9294   -1.2872    0.2041 H   0  0  0  0  0  0  0  0  0  0  0  0
    6.3139    0.2581   -0.5707 H   0  0  0  0  0  0  0  0  0  0  0  0
    5.4267   -0.9855   -1.4648 H   0  0  0  0  0  0  0  0  0  0  0  0
   -1.1505    2.1705   -0.0491 H   0  0  0  0  0  0  0  0  0  0  0  0
   -1.5858   -0.0697    1.4721 H   0  0  0  0  0  0  0  0  0  0  0  0
  1  2  1  0  0  0  0
  1 15  1  0  0  0  0
  2 18  1  0  0  0  0
  3  1  1  0  0  0  0
  3  4  1  0  0  0  0
  3  2  1  0  0  0  0
  4 20  1  0  0  0  0
  5 21  1  0  0  0  0
  5  6  1  0  0  0  0
  5  4  1  0  0  0  0
  6 14  1  0  0  0  0
  7 23  1  6  0  0  0
  7  6  1  0  0  0  0
  7  8  1  0  0  0  0
  7  9  1  0  0  0  0
  8 24  1  0  0  0  0
  9 27  1  0  0  0  0
  9 26  1  0  0  0  0
 10  9  1  0  0  0  0
 10 29  1  0  0  0  0
 11 10  1  0  0  0  0
 11 30  1  0  0  0  0
 12 11  1  0  0  0  0
 12 32  1  0  0  0  0
 13 35  1  0  0  0  0
 13  6  1  0  0  0  0
 14 36  1  0  0  0  0
 16  1  1  0  0  0  0
 17  2  1  0  0  0  0
 19  3  1  0  0  0  0
 22  5  1  0  0  0  0
 25  8  1  0  0  0  0
 28 10  1  0  0  0  0
 31 11  1  0  0  0  0
 33 12  1  0  0  0  0
 34 12  1  0  0  0  0
M  END
