omegapdb_1xom_12.log
 OpenBabel09261812563D

 50 52  0  0  1  0  0  0  0  0999 V2000
    6.6627   -0.6357   -0.8355 O   0  0  0  0  0  0  0  0  0  0  0  0
    5.8557    0.0303    0.0153 C   0  0  0  0  0  0  0  0  0  0  0  0
    6.1597    0.2311    1.1674 O   0  0  0  0  0  0  0  0  0  0  0  0
    4.5648    0.4466   -0.6566 C   0  0  1  0  0  0  0  0  0  0  0  0
    3.8190   -0.8119   -1.1729 C   0  0  0  0  0  0  0  0  0  0  0  0
    2.3159   -0.5545   -1.2101 C   0  0  0  0  0  0  0  0  0  0  0  0
    1.7370   -0.3771    0.2271 C   0  0  2  0  0  0  0  0  0  0  0  0
    2.7677    0.3834    1.1171 C   0  0  0  0  0  0  0  0  0  0  0  0
    3.6883    1.2815    0.2911 C   0  0  0  0  0  0  0  0  0  0  0  0
    1.5631   -1.7262    0.8063 C   0  0  0  0  0  0  0  0  0  0  0  0
    1.4518   -2.7945    1.2378 N   0  0  0  0  0  0  0  0  0  0  0  0
    0.3655    0.3011    0.1330 C   0  0  0  0  0  0  0  0  0  0  0  0
    0.1990    1.6648    0.3375 C   0  0  0  0  0  0  0  0  0  0  0  0
   -1.0475    2.2722    0.1721 C   0  0  0  0  0  0  0  0  0  0  0  0
   -2.1565    1.5189   -0.1971 C   0  0  0  0  0  0  0  0  0  0  0  0
   -3.4106    2.0105   -0.3620 O   0  0  0  0  0  0  0  0  0  0  0  0
   -3.6052    3.3885   -0.1283 C   0  0  0  0  0  0  0  0  0  0  0  0
   -1.9977    0.1365   -0.4166 C   0  0  0  0  0  0  0  0  0  0  0  0
   -0.7521   -0.4472   -0.2559 C   0  0  0  0  0  0  0  0  0  0  0  0
   -3.0746   -0.5947   -0.8295 O   0  0  0  0  0  0  0  0  0  0  0  0
   -3.5974   -1.5359    0.1236 C   0  0  0  0  0  0  0  0  0  0  0  0
   -4.7120   -2.2913   -0.5882 C   0  0  0  0  0  0  0  0  0  0  0  0
   -5.9120   -1.3230   -0.5647 C   0  0  0  0  0  0  0  0  0  0  0  0
   -5.6511   -0.3542    0.6196 C   0  0  0  0  0  0  0  0  0  0  0  0
   -4.3294   -0.8202    1.2575 C   0  0  0  0  0  0  0  0  0  0  0  0
    7.4481   -0.8873   -0.3218 H   0  0  0  0  0  0  0  0  0  0  0  0
    4.8497    1.0562   -1.5235 H   0  0  0  0  0  0  0  0  0  0  0  0
    4.1941   -1.0883   -2.1622 H   0  0  0  0  0  0  0  0  0  0  0  0
    4.0164   -1.6718   -0.5189 H   0  0  0  0  0  0  0  0  0  0  0  0
    1.7873   -1.3684   -1.7170 H   0  0  0  0  0  0  0  0  0  0  0  0
    2.1021    0.3602   -1.7753 H   0  0  0  0  0  0  0  0  0  0  0  0
    2.2386    0.9502    1.8885 H   0  0  0  0  0  0  0  0  0  0  0  0
    3.3941   -0.3405    1.6497 H   0  0  0  0  0  0  0  0  0  0  0  0
    4.3278    1.8626    0.9612 H   0  0  0  0  0  0  0  0  0  0  0  0
    3.0992    1.9946   -0.2973 H   0  0  0  0  0  0  0  0  0  0  0  0
    1.0365    2.2898    0.6338 H   0  0  0  0  0  0  0  0  0  0  0  0
   -1.1387    3.3388    0.3484 H   0  0  0  0  0  0  0  0  0  0  0  0
   -3.0077    4.0012   -0.8156 H   0  0  0  0  0  0  0  0  0  0  0  0
   -4.6651    3.5765   -0.3062 H   0  0  0  0  0  0  0  0  0  0  0  0
   -3.3570    3.6595    0.9064 H   0  0  0  0  0  0  0  0  0  0  0  0
   -0.6629   -1.5171   -0.4337 H   0  0  0  0  0  0  0  0  0  0  0  0
   -2.7844   -2.1854    0.4745 H   0  0  0  0  0  0  0  0  0  0  0  0
   -4.9332   -3.2014   -0.0177 H   0  0  0  0  0  0  0  0  0  0  0  0
   -4.4125   -2.5909   -1.5967 H   0  0  0  0  0  0  0  0  0  0  0  0
   -6.8585   -1.8624   -0.4579 H   0  0  0  0  0  0  0  0  0  0  0  0
   -5.9635   -0.7658   -1.5047 H   0  0  0  0  0  0  0  0  0  0  0  0
   -5.5354    0.6683    0.2503 H   0  0  0  0  0  0  0  0  0  0  0  0
   -6.4705   -0.3541    1.3454 H   0  0  0  0  0  0  0  0  0  0  0  0
   -4.5122   -1.5463    2.0597 H   0  0  0  0  0  0  0  0  0  0  0  0
   -3.7416   -0.0006    1.6841 H   0  0  0  0  0  0  0  0  0  0  0  0
  1 26  1  0  0  0  0
  1  2  1  0  0  0  0
  2  3  2  0  0  0  0
  4 27  1  6  0  0  0
  4  2  1  0  0  0  0
  4  9  1  0  0  0  0
  5  4  1  0  0  0  0
  5 29  1  0  0  0  0
  6  5  1  0  0  0  0
  6  7  1  0  0  0  0
  7 10  1  1  0  0  0
  7  8  1  0  0  0  0
  8 33  1  0  0  0  0
  8 32  1  0  0  0  0
  9 34  1  0  0  0  0
  9  8  1  0  0  0  0
 10 11  3  0  0  0  0
 12  7  1  0  0  0  0
 12 13  2  0  0  0  0
 13 36  1  0  0  0  0
 14 13  1  0  0  0  0
 14 37  1  0  0  0  0
 15 14  2  0  0  0  0
 16 15  1  0  0  0  0
 16 17  1  0  0  0  0
 17 40  1  0  0  0  0
 18 19  2  0  0  0  0
 18 15  1  0  0  0  0
 19 12  1  0  0  0  0
 20 18  1  0  0  0  0
 20 21  1  0  0  0  0
 21 42  1  0  0  0  0
 21 25  1  0  0  0  0
 22 23  1  0  0  0  0
 22 43  1  0  0  0  0
 22 21  1  0  0  0  0
 23 45  1  0  0  0  0
 23 24  1  0  0  0  0
 24 25  1  0  0  0  0
 24 48  1  0  0  0  0
 25 50  1  0  0  0  0
 25 49  1  0  0  0  0
 28  5  1  0  0  0  0
 30  6  1  0  0  0  0
 31  6  1  0  0  0  0
 35  9  1  0  0  0  0
 38 17  1  0  0  0  0
 39 17  1  0  0  0  0
 41 19  1  0  0  0  0
 44 22  1  0  0  0  0
 46 23  1  0  0  0  0
 47 24  1  0  0  0  0
M  END
