omegapdb_2f7p_17.log
 OpenBabel09261812563D

 34 35  0  0  1  0  0  0  0  0999 V2000
   -1.0738   -0.1467   -0.8633 C   0  0  1  0  0  0  0  0  0  0  0  0
    0.2911   -0.3490   -0.3975 N   0  0  0  0  0  0  0  0  0  0  0  0
    1.2054    0.7591   -0.6733 C   0  0  0  0  0  0  0  0  0  0  0  0
    2.6107    0.4337   -0.2199 C   0  0  0  0  0  0  0  0  0  0  0  0
    3.2233   -0.7572   -0.6181 C   0  0  0  0  0  0  0  0  0  0  0  0
    4.5207   -1.0532   -0.2188 C   0  0  0  0  0  0  0  0  0  0  0  0
    5.2256   -0.1604    0.5864 C   0  0  0  0  0  0  0  0  0  0  0  0
    4.6235    1.0259    0.9896 C   0  0  0  0  0  0  0  0  0  0  0  0
    3.3212    1.3176    0.5896 C   0  0  0  0  0  0  0  0  0  0  0  0
   -1.8234   -1.5228   -0.8608 C   0  0  1  0  0  0  0  0  0  0  0  0
   -0.9411   -2.6131   -0.7751 O   0  0  0  0  0  0  0  0  0  0  0  0
   -2.7234   -1.4520    0.3792 C   0  0  1  0  0  0  0  0  0  0  0  0
   -1.9107   -1.6212    1.5224 O   0  0  0  0  0  0  0  0  0  0  0  0
   -3.2261   -0.0179    0.3080 C   0  0  1  0  0  0  0  0  0  0  0  0
   -3.9087    0.3765    1.4698 O   0  0  0  0  0  0  0  0  0  0  0  0
   -1.9409    0.7769    0.0338 C   0  0  2  0  0  0  0  0  0  0  0  0
   -2.2030    2.4247   -0.6979 S   0  0  0  0  0  0  0  0  0  0  0  0
   -1.0068    0.2414   -1.8868 H   0  0  0  0  0  0  0  0  0  0  0  0
    0.2657   -0.5263    0.6059 H   0  0  0  0  0  0  0  0  0  0  0  0
    1.1917    0.9274   -1.7583 H   0  0  0  0  0  0  0  0  0  0  0  0
    0.8753    1.7016   -0.2083 H   0  0  0  0  0  0  0  0  0  0  0  0
    2.6705   -1.4535   -1.2445 H   0  0  0  0  0  0  0  0  0  0  0  0
    4.9862   -1.9826   -0.5373 H   0  0  0  0  0  0  0  0  0  0  0  0
    6.2410   -0.3912    0.8985 H   0  0  0  0  0  0  0  0  0  0  0  0
    5.1650    1.7259    1.6210 H   0  0  0  0  0  0  0  0  0  0  0  0
    2.8512    2.2455    0.9109 H   0  0  0  0  0  0  0  0  0  0  0  0
   -2.4383   -1.6113   -1.7674 H   0  0  0  0  0  0  0  0  0  0  0  0
   -0.0498   -2.2100   -0.8129 H   0  0  0  0  0  0  0  0  0  0  0  0
   -3.5445   -2.1818    0.3633 H   0  0  0  0  0  0  0  0  0  0  0  0
   -1.3745   -2.4037    1.3111 H   0  0  0  0  0  0  0  0  0  0  0  0
   -3.8830    0.0515   -0.5748 H   0  0  0  0  0  0  0  0  0  0  0  0
   -4.4018    1.1788    1.2567 H   0  0  0  0  0  0  0  0  0  0  0  0
   -1.4351    0.9074    0.9948 H   0  0  0  0  0  0  0  0  0  0  0  0
   -2.4748    3.0716    0.4460 H   0  0  0  0  0  0  0  0  0  0  0  0
  1 10  1  6  0  0  0
  1  2  1  0  0  0  0
  2 19  1  0  0  0  0
  3  2  1  0  0  0  0
  3  4  1  0  0  0  0
  3 21  1  0  0  0  0
  4  9  1  0  0  0  0
  5  4  2  0  0  0  0
  5  6  1  0  0  0  0
  6  7  2  0  0  0  0
  7 24  1  0  0  0  0
  7  8  1  0  0  0  0
  8 25  1  0  0  0  0
  9 26  1  0  0  0  0
  9  8  2  0  0  0  0
 10 11  1  0  0  0  0
 10 12  1  1  0  0  0
 12 14  1  1  0  0  0
 12 13  1  0  0  0  0
 14 16  1  6  0  0  0
 14 15  1  0  0  0  0
 16  1  1  6  0  0  0
 16 33  1  0  0  0  0
 17 16  1  0  0  0  0
 17 34  1  0  0  0  0
 18  1  1  0  0  0  0
 20  3  1  0  0  0  0
 22  5  1  0  0  0  0
 23  6  1  0  0  0  0
 27 10  1  0  0  0  0
 28 11  1  0  0  0  0
 29 12  1  0  0  0  0
 30 13  1  0  0  0  0
 31 14  1  0  0  0  0
 32 15  1  0  0  0  0
M  END
