omegapdb_1gs5_21.log
 OpenBabel09261812563D

 24 23  0  0  1  0  0  0  0  0999 V2000
    0.2307    0.1190   -0.3412 C   0  0  2  0  0  0  0  0  0  0  0  0
    0.6185    1.5929   -0.1067 C   0  0  0  0  0  0  0  0  0  0  0  0
    1.7523    1.9945   -0.1193 O   0  0  0  0  0  0  0  0  0  0  0  0
   -0.4199    2.4059    0.1163 O   0  0  0  0  0  0  0  0  0  0  0  0
   -0.5053   -0.4802    0.8844 C   0  0  0  0  0  0  0  0  0  0  0  0
   -1.7459   -1.2741    0.4914 C   0  0  0  0  0  0  0  0  0  0  0  0
   -2.8481   -0.3805   -0.0475 C   0  0  0  0  0  0  0  0  0  0  0  0
   -2.7458    0.8170   -0.1944 O   0  0  0  0  0  0  0  0  0  0  0  0
   -3.9973   -0.9838   -0.3764 O   0  0  0  0  0  0  0  0  0  0  0  0
    1.3245   -0.7031   -0.8056 N   0  0  0  0  0  0  0  0  0  0  0  0
    2.5708   -0.8703   -0.2203 C   0  0  0  0  0  0  0  0  0  0  0  0
    3.4864   -1.3055   -0.8917 O   0  0  0  0  0  0  0  0  0  0  0  0
    2.7276   -0.6157    1.2633 C   0  0  0  0  0  0  0  0  0  0  0  0
   -0.4828    0.1483   -1.1734 H   0  0  0  0  0  0  0  0  0  0  0  0
   -1.2701    1.9253    0.0320 H   0  0  0  0  0  0  0  0  0  0  0  0
    0.1785   -1.1426    1.4188 H   0  0  0  0  0  0  0  0  0  0  0  0
   -0.7961    0.3090    1.5855 H   0  0  0  0  0  0  0  0  0  0  0  0
   -1.4937   -2.0236   -0.2720 H   0  0  0  0  0  0  0  0  0  0  0  0
   -2.1429   -1.8258    1.3537 H   0  0  0  0  0  0  0  0  0  0  0  0
   -3.9428   -1.9353   -0.2067 H   0  0  0  0  0  0  0  0  0  0  0  0
    1.4078   -0.7931   -1.8098 H   0  0  0  0  0  0  0  0  0  0  0  0
    2.4371   -1.5151    1.8189 H   0  0  0  0  0  0  0  0  0  0  0  0
    2.1505    0.2355    1.6265 H   0  0  0  0  0  0  0  0  0  0  0  0
    3.7865   -0.4322    1.4490 H   0  0  0  0  0  0  0  0  0  0  0  0
  1 14  1  6  0  0  0
  1  2  1  0  0  0  0
  1  5  1  0  0  0  0
  2  4  1  0  0  0  0
  3  2  2  0  0  0  0
  5 16  1  0  0  0  0
  5 17  1  0  0  0  0
  6  5  1  0  0  0  0
  6 19  1  0  0  0  0
  7  6  1  0  0  0  0
  8  7  2  0  0  0  0
  9 20  1  0  0  0  0
  9  7  1  0  0  0  0
 10  1  1  0  0  0  0
 10 11  1  0  0  0  0
 11 13  1  0  0  0  0
 12 11  2  0  0  0  0
 13 24  1  0  0  0  0
 13 23  1  0  0  0  0
 13 22  1  0  0  0  0
 15  4  1  0  0  0  0
 18  6  1  0  0  0  0
 21 10  1  0  0  0  0
M  END
