omegapdb_1qxw_01.log
 OpenBabel09261812563D

 36 36  0  0  1  0  0  0  0  0999 V2000
   -5.1702   -0.1150    0.4454 C   0  0  0  0  0  0  0  0  0  0  0  0
   -4.4925    1.2154    0.2666 C   0  0  0  0  0  0  0  0  0  0  0  0
   -4.0314    0.0245   -0.5182 C   0  0  0  0  0  0  0  0  0  0  0  0
   -2.7723   -0.5590   -0.1451 N   0  0  0  0  0  0  0  0  0  0  0  0
   -1.6137    0.0682   -0.7716 C   0  0  0  0  0  0  0  0  0  0  0  0
   -0.3653   -0.4549   -0.0617 C   0  0  0  0  0  0  0  0  0  0  0  0
    0.9122    0.3101   -0.4443 C   0  0  1  0  0  0  0  0  0  0  0  0
    0.7236    1.7068   -0.0627 N   0  0  0  0  0  0  0  0  0  0  0  0
    2.1622   -0.3663    0.1424 C   0  0  0  0  0  0  0  0  0  0  0  0
    3.4655    0.3569   -0.1918 C   0  0  0  0  0  0  0  0  0  0  0  0
    4.7053   -0.3977    0.2862 C   0  0  0  0  0  0  0  0  0  0  0  0
    6.0045    0.3412   -0.0237 C   0  0  0  0  0  0  0  0  0  0  0  0
   -0.5288   -0.3385    1.3262 O   0  0  0  0  0  0  0  0  0  0  0  0
   -0.2720   -1.8261   -0.4237 O   0  0  0  0  0  0  0  0  0  0  0  0
   -4.9673   -0.6588    1.3633 H   0  0  0  0  0  0  0  0  0  0  0  0
   -6.1712   -0.2468    0.0450 H   0  0  0  0  0  0  0  0  0  0  0  0
   -3.8369    1.5541    1.0640 H   0  0  0  0  0  0  0  0  0  0  0  0
   -5.0246    2.0047   -0.2561 H   0  0  0  0  0  0  0  0  0  0  0  0
   -4.2814    0.0173   -1.5831 H   0  0  0  0  0  0  0  0  0  0  0  0
   -2.7619   -1.5518   -0.3639 H   0  0  0  0  0  0  0  0  0  0  0  0
   -1.6706    1.1498   -0.6274 H   0  0  0  0  0  0  0  0  0  0  0  0
   -1.5318   -0.1372   -1.8504 H   0  0  0  0  0  0  0  0  0  0  0  0
    0.9856    0.2727   -1.5407 H   0  0  0  0  0  0  0  0  0  0  0  0
    1.5326    2.2594   -0.3279 H   0  0  0  0  0  0  0  0  0  0  0  0
    0.6359    1.7538    0.9496 H   0  0  0  0  0  0  0  0  0  0  0  0
    2.0491   -0.4396    1.2336 H   0  0  0  0  0  0  0  0  0  0  0  0
    2.2224   -1.3913   -0.2477 H   0  0  0  0  0  0  0  0  0  0  0  0
    3.4646    1.3580    0.2625 H   0  0  0  0  0  0  0  0  0  0  0  0
    3.5330    0.5102   -1.2799 H   0  0  0  0  0  0  0  0  0  0  0  0
    4.6266   -0.5700    1.3685 H   0  0  0  0  0  0  0  0  0  0  0  0
    4.7248   -1.3915   -0.1815 H   0  0  0  0  0  0  0  0  0  0  0  0
    6.0232    1.3244    0.4612 H   0  0  0  0  0  0  0  0  0  0  0  0
    6.8786   -0.2193    0.3245 H   0  0  0  0  0  0  0  0  0  0  0  0
    6.1184    0.5017   -1.1024 H   0  0  0  0  0  0  0  0  0  0  0  0
   -1.4893   -0.4622    1.4597 H   0  0  0  0  0  0  0  0  0  0  0  0
    0.2289   -2.2494    0.2866 H   0  0  0  0  0  0  0  0  0  0  0  0
  1 15  1  0  0  0  0
  2  1  1  0  0  0  0
  2 17  1  0  0  0  0
  3  4  1  0  0  0  0
  3  2  1  0  0  0  0
  3  1  1  0  0  0  0
  5 21  1  0  0  0  0
  5  4  1  0  0  0  0
  5  6  1  0  0  0  0
  6 13  1  0  0  0  0
  7 23  1  6  0  0  0
  7  8  1  0  0  0  0
  7  6  1  0  0  0  0
  7  9  1  0  0  0  0
  8 25  1  0  0  0  0
  9 26  1  0  0  0  0
 10  9  1  0  0  0  0
 10 28  1  0  0  0  0
 10 11  1  0  0  0  0
 11 30  1  0  0  0  0
 12 11  1  0  0  0  0
 12 33  1  0  0  0  0
 12 32  1  0  0  0  0
 13 35  1  0  0  0  0
 14  6  1  0  0  0  0
 14 36  1  0  0  0  0
 16  1  1  0  0  0  0
 18  2  1  0  0  0  0
 19  3  1  0  0  0  0
 20  4  1  0  0  0  0
 22  5  1  0  0  0  0
 24  8  1  0  0  0  0
 27  9  1  0  0  0  0
 29 10  1  0  0  0  0
 31 11  1  0  0  0  0
 34 12  1  0  0  0  0
M  END
