omegapdb_1z1r_22.log
 OpenBabel09261812563D

 66 68  0  0  1  0  0  0  0  0999 V2000
    0.4013    0.4466    0.1823 C   0  0  2  0  0  0  0  0  0  0  0  0
    0.5405   -0.8663   -0.6280 C   0  0  0  0  0  0  0  0  0  0  0  0
   -0.7341   -1.6806   -0.6015 C   0  0  0  0  0  0  0  0  0  0  0  0
   -1.3138   -2.0847    0.6049 C   0  0  0  0  0  0  0  0  0  0  0  0
   -2.5840   -2.6473    0.6387 C   0  0  0  0  0  0  0  0  0  0  0  0
   -3.2949   -2.8259   -0.5483 C   0  0  0  0  0  0  0  0  0  0  0  0
   -2.6950   -2.5164   -1.7641 C   0  0  0  0  0  0  0  0  0  0  0  0
   -1.4270   -1.9436   -1.7826 C   0  0  0  0  0  0  0  0  0  0  0  0
   -4.6013   -3.2560   -0.5484 O   0  0  0  0  0  0  0  0  0  0  0  0
   -5.4904   -2.3525    0.1170 C   0  0  0  0  0  0  0  0  0  0  0  0
   -5.5651   -1.0081   -0.6147 C   0  0  0  0  0  0  0  0  0  0  0  0
   -6.0591    0.1672    0.2465 C   0  0  0  0  0  0  0  0  0  0  0  0
   -5.3370    0.2696    1.5838 C   0  0  0  0  0  0  0  0  0  0  0  0
   -5.8227   -0.2261    2.5902 O   0  0  0  0  0  0  0  0  0  0  0  0
   -4.1300    0.9082    1.6409 N   0  0  0  0  0  0  0  0  0  0  0  0
   -3.2823    1.3612    0.5616 C   0  0  2  0  0  0  0  0  0  0  0  0
   -1.8337    1.0194    0.9770 C   0  0  0  0  0  0  0  0  0  0  0  0
   -1.5775    0.7478    2.1450 O   0  0  0  0  0  0  0  0  0  0  0  0
   -0.9102    1.0476   -0.0082 N   0  0  0  0  0  0  0  0  0  0  0  0
   -3.4547    2.8658    0.2923 C   0  0  0  0  0  0  0  0  0  0  0  0
   -2.9527    3.2875   -1.0815 C   0  0  0  0  0  0  0  0  0  0  0  0
   -2.5434    2.4892   -1.9153 O   0  0  0  0  0  0  0  0  0  0  0  0
   -3.0244    4.6163   -1.3375 N   0  0  0  0  0  0  0  0  0  0  0  0
    1.4872    1.4950   -0.1069 C   0  0  2  0  0  0  0  0  0  0  0  0
    1.4224    1.9808   -1.4345 O   0  0  0  0  0  0  0  0  0  0  0  0
    2.9150    1.0251    0.2314 C   0  0  0  0  0  0  0  0  0  0  0  0
    3.5156    0.3577   -0.9251 N   0  0  0  0  0  0  0  0  0  0  0  0
    4.5068   -0.9600   -0.7010 S   0  0  0  0  0  0  0  0  0  0  0  0
    4.9663   -1.3166   -2.0303 O   0  0  0  0  0  0  0  0  0  0  0  0
    3.7786   -1.8815    0.1543 O   0  0  0  0  0  0  0  0  0  0  0  0
    5.9120   -0.3806    0.2255 C   0  0  0  0  0  0  0  0  0  0  0  0
    5.9001   -0.4709    1.6145 C   0  0  0  0  0  0  0  0  0  0  0  0
    6.9863    0.0208    2.3314 C   0  0  0  0  0  0  0  0  0  0  0  0
    8.0653    0.5896    1.6604 C   0  0  0  0  0  0  0  0  0  0  0  0
    8.0707    0.6627    0.2690 C   0  0  0  0  0  0  0  0  0  0  0  0
    6.9910    0.1749   -0.4579 C   0  0  0  0  0  0  0  0  0  0  0  0
    0.4527    0.2100    1.2498 H   0  0  0  0  0  0  0  0  0  0  0  0
    0.7767   -0.6377   -1.6755 H   0  0  0  0  0  0  0  0  0  0  0  0
    1.3947   -1.4338   -0.2398 H   0  0  0  0  0  0  0  0  0  0  0  0
   -0.7962   -1.9000    1.5438 H   0  0  0  0  0  0  0  0  0  0  0  0
   -3.0389   -2.9178    1.5878 H   0  0  0  0  0  0  0  0  0  0  0  0
   -3.2548   -2.6774   -2.6812 H   0  0  0  0  0  0  0  0  0  0  0  0
   -0.9890   -1.6539   -2.7361 H   0  0  0  0  0  0  0  0  0  0  0  0
   -6.4606   -2.8562    0.1286 H   0  0  0  0  0  0  0  0  0  0  0  0
   -5.1801   -2.2151    1.1594 H   0  0  0  0  0  0  0  0  0  0  0  0
   -4.5654   -0.7791   -0.9982 H   0  0  0  0  0  0  0  0  0  0  0  0
   -6.2101   -1.1024   -1.4956 H   0  0  0  0  0  0  0  0  0  0  0  0
   -5.9650    1.0960   -0.3303 H   0  0  0  0  0  0  0  0  0  0  0  0
   -7.1152    0.0370    0.4984 H   0  0  0  0  0  0  0  0  0  0  0  0
   -3.6359    0.7885    2.5204 H   0  0  0  0  0  0  0  0  0  0  0  0
   -3.5027    0.8245   -0.3655 H   0  0  0  0  0  0  0  0  0  0  0  0
   -1.2234    1.2748   -0.9476 H   0  0  0  0  0  0  0  0  0  0  0  0
   -4.5240    3.1051    0.3521 H   0  0  0  0  0  0  0  0  0  0  0  0
   -2.9621    3.4547    1.0764 H   0  0  0  0  0  0  0  0  0  0  0  0
   -3.3366    5.2841   -0.6517 H   0  0  0  0  0  0  0  0  0  0  0  0
   -2.6943    4.9495   -2.2304 H   0  0  0  0  0  0  0  0  0  0  0  0
    1.2573    2.3596    0.5245 H   0  0  0  0  0  0  0  0  0  0  0  0
    1.6392    1.2347   -2.0124 H   0  0  0  0  0  0  0  0  0  0  0  0
    3.5285    1.8819    0.5364 H   0  0  0  0  0  0  0  0  0  0  0  0
    2.8890    0.3145    1.0634 H   0  0  0  0  0  0  0  0  0  0  0  0
    3.9193    0.9920   -1.6069 H   0  0  0  0  0  0  0  0  0  0  0  0
    5.0616   -0.9446    2.1166 H   0  0  0  0  0  0  0  0  0  0  0  0
    6.9931   -0.0499    3.4155 H   0  0  0  0  0  0  0  0  0  0  0  0
    8.9132    0.9694    2.2242 H   0  0  0  0  0  0  0  0  0  0  0  0
    8.9222    1.0923   -0.2513 H   0  0  0  0  0  0  0  0  0  0  0  0
    6.9889    0.1983   -1.5442 H   0  0  0  0  0  0  0  0  0  0  0  0
  1 37  1  1  0  0  0
  2  3  1  0  0  0  0
  2 39  1  0  0  0  0
  2  1  1  0  0  0  0
  3  4  2  0  0  0  0
  4  5  1  0  0  0  0
  4 40  1  0  0  0  0
  5 41  1  0  0  0  0
  6  5  2  0  0  0  0
  7  6  1  0  0  0  0
  8  7  2  0  0  0  0
  8  3  1  0  0  0  0
  9  6  1  0  0  0  0
  9 10  1  0  0  0  0
 10 44  1  0  0  0  0
 10 45  1  0  0  0  0
 11 10  1  0  0  0  0
 11 12  1  0  0  0  0
 12 49  1  0  0  0  0
 12 13  1  0  0  0  0
 13 15  1  0  0  0  0
 13 14  2  0  0  0  0
 15 50  1  0  0  0  0
 16 51  1  6  0  0  0
 16 17  1  0  0  0  0
 16 15  1  0  0  0  0
 17 18  2  0  0  0  0
 19  1  1  0  0  0  0
 19 17  1  0  0  0  0
 20 53  1  0  0  0  0
 20 16  1  0  0  0  0
 20 54  1  0  0  0  0
 21 20  1  0  0  0  0
 22 21  2  0  0  0  0
 23 21  1  0  0  0  0
 23 55  1  0  0  0  0
 24  1  1  0  0  0  0
 24 26  1  0  0  0  0
 24 57  1  1  0  0  0
 25 24  1  0  0  0  0
 26 59  1  0  0  0  0
 26 60  1  0  0  0  0
 27 28  1  0  0  0  0
 27 26  1  0  0  0  0
 28 30  2  0  0  0  0
 28 31  1  0  0  0  0
 29 28  2  0  0  0  0
 31 32  1  0  0  0  0
 32 62  1  0  0  0  0
 32 33  2  0  0  0  0
 33 63  1  0  0  0  0
 34 64  1  0  0  0  0
 34 33  1  0  0  0  0
 35 34  2  0  0  0  0
 36 31  2  0  0  0  0
 36 35  1  0  0  0  0
 38  2  1  0  0  0  0
 42  7  1  0  0  0  0
 43  8  1  0  0  0  0
 46 11  1  0  0  0  0
 47 11  1  0  0  0  0
 48 12  1  0  0  0  0
 52 19  1  0  0  0  0
 56 23  1  0  0  0  0
 58 25  1  0  0  0  0
 61 27  1  0  0  0  0
 65 35  1  0  0  0  0
 66 36  1  0  0  0  0
M  END
