omegapdb_1v2k_17.log
 OpenBabel09261812563D

 61 65  0  0  0  0  0  0  0  0999 V2000
   -8.5352    1.8873   -1.6312 N   0  0  0  0  0  0  0  0  0  0  0  0
   -7.6490    2.7394   -1.1209 C   0  0  0  0  0  0  0  0  0  0  0  0
   -6.4648    2.3731   -0.4899 C   0  0  0  0  0  0  0  0  0  0  0  0
   -6.1416    1.0146   -0.3737 C   0  0  0  0  0  0  0  0  0  0  0  0
   -7.0717    0.1105   -0.9143 C   0  0  0  0  0  0  0  0  0  0  0  0
   -8.2230    0.5926   -1.5133 C   0  0  0  0  0  0  0  0  0  0  0  0
   -4.9521    0.5578    0.2063 N   0  0  0  0  0  0  0  0  0  0  0  0
   -3.9643    1.5517    0.6034 C   0  0  0  0  0  0  0  0  0  0  0  0
   -2.5847    0.9143    0.7673 C   0  0  0  0  0  0  0  0  0  0  0  0
   -2.6438   -0.2629    1.7499 C   0  0  0  0  0  0  0  0  0  0  0  0
   -3.7226   -1.2653    1.3230 C   0  0  0  0  0  0  0  0  0  0  0  0
   -5.0570   -0.5420    1.1661 C   0  0  0  0  0  0  0  0  0  0  0  0
   -1.2744   -0.8432    2.1119 C   0  0  0  0  0  0  0  0  0  0  0  0
   -0.7902   -0.5781    3.2050 O   0  0  0  0  0  0  0  0  0  0  0  0
   -0.5892   -1.6591    1.2498 N   0  0  0  0  0  0  0  0  0  0  0  0
    0.6842   -2.1868    1.7473 C   0  0  0  0  0  0  0  0  0  0  0  0
    1.1546   -3.3314    0.8623 C   0  0  0  0  0  0  0  0  0  0  0  0
    1.2840   -2.9154   -0.5384 N   0  0  0  0  0  0  0  0  0  0  0  0
    0.3080   -1.9301   -1.0135 C   0  0  0  0  0  0  0  0  0  0  0  0
   -0.9331   -1.9798   -0.1294 C   0  0  0  0  0  0  0  0  0  0  0  0
    2.7835   -2.8620   -1.2429 S   0  0  0  0  0  0  0  0  0  0  0  0
    3.5438   -3.9689   -0.6909 O   0  0  0  0  0  0  0  0  0  0  0  0
    2.5486   -2.7029   -2.6670 O   0  0  0  0  0  0  0  0  0  0  0  0
    3.5461   -1.3586   -0.6675 C   0  0  0  0  0  0  0  0  0  0  0  0
    3.4641   -0.2276   -1.4348 C   0  0  0  0  0  0  0  0  0  0  0  0
    4.0210    0.9903   -0.9639 C   0  0  0  0  0  0  0  0  0  0  0  0
    4.6546    1.0154    0.3048 C   0  0  0  0  0  0  0  0  0  0  0  0
    4.7315   -0.1849    1.0657 C   0  0  0  0  0  0  0  0  0  0  0  0
    4.1958   -1.3505    0.5938 C   0  0  0  0  0  0  0  0  0  0  0  0
    5.2076    2.2328    0.7802 C   0  0  0  0  0  0  0  0  0  0  0  0
    5.1245    3.3613    0.0124 C   0  0  0  0  0  0  0  0  0  0  0  0
    4.4984    3.3503   -1.2576 C   0  0  0  0  0  0  0  0  0  0  0  0
    3.9609    2.1852   -1.7300 C   0  0  0  0  0  0  0  0  0  0  0  0
    5.7976    4.8552    0.5898 Cl  0  0  0  0  0  0  0  0  0  0  0  0
   -7.8981    3.7965   -1.2090 H   0  0  0  0  0  0  0  0  0  0  0  0
   -5.8273    3.1500   -0.0834 H   0  0  0  0  0  0  0  0  0  0  0  0
   -6.8888   -0.9592   -0.9006 H   0  0  0  0  0  0  0  0  0  0  0  0
   -8.9399   -0.1102   -1.9362 H   0  0  0  0  0  0  0  0  0  0  0  0
   -3.9051    2.3173   -0.1745 H   0  0  0  0  0  0  0  0  0  0  0  0
   -4.2567    2.0529    1.5448 H   0  0  0  0  0  0  0  0  0  0  0  0
   -2.2355    0.5979   -0.2227 H   0  0  0  0  0  0  0  0  0  0  0  0
   -1.8808    1.6699    1.1348 H   0  0  0  0  0  0  0  0  0  0  0  0
   -2.9631    0.1547    2.7128 H   0  0  0  0  0  0  0  0  0  0  0  0
   -3.8258   -2.0536    2.0781 H   0  0  0  0  0  0  0  0  0  0  0  0
   -3.4801   -1.7500    0.3717 H   0  0  0  0  0  0  0  0  0  0  0  0
   -5.8202   -1.2456    0.8317 H   0  0  0  0  0  0  0  0  0  0  0  0
   -5.3827   -0.1532    2.1481 H   0  0  0  0  0  0  0  0  0  0  0  0
    1.4382   -1.3883    1.7802 H   0  0  0  0  0  0  0  0  0  0  0  0
    0.5424   -2.5320    2.7751 H   0  0  0  0  0  0  0  0  0  0  0  0
    2.1156   -3.7178    1.2076 H   0  0  0  0  0  0  0  0  0  0  0  0
    0.4454   -4.1662    0.9144 H   0  0  0  0  0  0  0  0  0  0  0  0
    0.7228   -0.9101   -0.9776 H   0  0  0  0  0  0  0  0  0  0  0  0
    0.0439   -2.1571   -2.0494 H   0  0  0  0  0  0  0  0  0  0  0  0
   -1.3994   -2.9722   -0.2038 H   0  0  0  0  0  0  0  0  0  0  0  0
   -1.6469   -1.2545   -0.5161 H   0  0  0  0  0  0  0  0  0  0  0  0
    2.9930   -0.2700   -2.4138 H   0  0  0  0  0  0  0  0  0  0  0  0
    5.2384   -0.1650    2.0274 H   0  0  0  0  0  0  0  0  0  0  0  0
    4.2882   -2.2767    1.1534 H   0  0  0  0  0  0  0  0  0  0  0  0
    5.6946    2.2624    1.7508 H   0  0  0  0  0  0  0  0  0  0  0  0
    4.4560    4.2668   -1.8375 H   0  0  0  0  0  0  0  0  0  0  0  0
    3.4795    2.1621   -2.7047 H   0  0  0  0  0  0  0  0  0  0  0  0
  1  6  2  0  0  0  0
  1  2  1  0  0  0  0
  2  3  2  0  0  0  0
  3  4  1  0  0  0  0
  3 36  1  0  0  0  0
  4  7  1  0  0  0  0
  5 37  1  0  0  0  0
  5  4  2  0  0  0  0
  6  5  1  0  0  0  0
  7  8  1  0  0  0  0
  7 12  1  0  0  0  0
  8  9  1  0  0  0  0
  8 40  1  0  0  0  0
  9 42  1  0  0  0  0
  9 10  1  0  0  0  0
 10 13  1  0  0  0  0
 10 43  1  0  0  0  0
 11 10  1  0  0  0  0
 11 44  1  0  0  0  0
 12 11  1  0  0  0  0
 12 47  1  0  0  0  0
 13 14  2  0  0  0  0
 15 16  1  0  0  0  0
 15 13  1  0  0  0  0
 16 48  1  0  0  0  0
 16 49  1  0  0  0  0
 17 51  1  0  0  0  0
 17 50  1  0  0  0  0
 17 16  1  0  0  0  0
 18 17  1  0  0  0  0
 19 52  1  0  0  0  0
 19 18  1  0  0  0  0
 19 20  1  0  0  0  0
 20 15  1  0  0  0  0
 21 22  2  0  0  0  0
 21 24  1  0  0  0  0
 21 18  1  0  0  0  0
 23 21  2  0  0  0  0
 24 29  2  0  0  0  0
 25 26  2  0  0  0  0
 25 24  1  0  0  0  0
 26 27  1  0  0  0  0
 27 30  1  0  0  0  0
 27 28  2  0  0  0  0
 28 57  1  0  0  0  0
 29 28  1  0  0  0  0
 29 58  1  0  0  0  0
 30 59  1  0  0  0  0
 31 34  1  0  0  0  0
 31 30  2  0  0  0  0
 32 31  1  0  0  0  0
 33 32  2  0  0  0  0
 33 26  1  0  0  0  0
 35  2  1  0  0  0  0
 38  6  1  0  0  0  0
 39  8  1  0  0  0  0
 41  9  1  0  0  0  0
 45 11  1  0  0  0  0
 46 12  1  0  0  0  0
 53 19  1  0  0  0  0
 54 20  1  0  0  0  0
 55 20  1  0  0  0  0
 56 25  1  0  0  0  0
 60 32  1  0  0  0  0
 61 33  1  0  0  0  0
M  END
