omegapdb_1m5f_11.log
 OpenBabel09261812563D

 25 25  0  0  1  0  0  0  0  0999 V2000
   -1.9980   -2.6709    0.2139 O   0  0  0  0  0  0  0  0  0  0  0  0
   -1.2541   -1.8130   -0.4873 C   0  0  0  0  0  0  0  0  0  0  0  0
   -0.4728   -2.1516   -1.3473 O   0  0  0  0  0  0  0  0  0  0  0  0
   -1.5024   -0.3926   -0.1243 C   0  0  0  0  0  0  0  0  0  0  0  0
   -2.6063   -0.0283    0.4719 N   0  0  0  0  0  0  0  0  0  0  0  0
   -2.5153    1.3299    0.6078 O   0  0  0  0  0  0  0  0  0  0  0  0
   -1.3493    1.7645    0.0886 C   0  0  0  0  0  0  0  0  0  0  0  0
   -0.6456    0.7131   -0.4060 C   0  0  0  0  0  0  0  0  0  0  0  0
    0.7018    0.7110   -1.0625 C   0  0  0  0  0  0  0  0  0  0  0  0
    1.9030    0.7136   -0.1004 C   0  0  2  0  0  0  0  0  0  0  0  0
    3.1907    0.9207   -0.7694 N   0  0  0  0  0  0  0  0  0  0  0  0
    1.9989   -0.5655    0.7564 C   0  0  0  0  0  0  0  0  0  0  0  0
    1.0417   -1.1658    1.1756 O   0  0  0  0  0  0  0  0  0  0  0  0
    3.2518   -0.9243    1.0392 O   0  0  0  0  0  0  0  0  0  0  0  0
   -1.0929    3.2281    0.1670 C   0  0  0  0  0  0  0  0  0  0  0  0
   -1.7527   -3.5565   -0.1018 H   0  0  0  0  0  0  0  0  0  0  0  0
    0.7944    1.6054   -1.6929 H   0  0  0  0  0  0  0  0  0  0  0  0
    0.7697   -0.1617   -1.7199 H   0  0  0  0  0  0  0  0  0  0  0  0
    1.7793    1.5312    0.6230 H   0  0  0  0  0  0  0  0  0  0  0  0
    3.3449    1.9011   -0.9794 H   0  0  0  0  0  0  0  0  0  0  0  0
    3.2132    0.4169   -1.6533 H   0  0  0  0  0  0  0  0  0  0  0  0
    3.8250   -0.2974    0.5441 H   0  0  0  0  0  0  0  0  0  0  0  0
   -0.2012    3.4865   -0.4111 H   0  0  0  0  0  0  0  0  0  0  0  0
   -0.9378    3.5440    1.2038 H   0  0  0  0  0  0  0  0  0  0  0  0
   -1.9419    3.7902   -0.2330 H   0  0  0  0  0  0  0  0  0  0  0  0
  2  4  1  0  0  0  0
  2  1  1  0  0  0  0
  3  2  2  0  0  0  0
  4  5  2  0  0  0  0
  5  6  1  0  0  0  0
  7 15  1  0  0  0  0
  7  6  1  0  0  0  0
  8  4  1  0  0  0  0
  8  7  2  0  0  0  0
  9  8  1  0  0  0  0
  9 10  1  0  0  0  0
 10 19  1  1  0  0  0
 10 12  1  0  0  0  0
 11 10  1  0  0  0  0
 12 14  1  0  0  0  0
 12 13  2  0  0  0  0
 15 24  1  0  0  0  0
 16  1  1  0  0  0  0
 17  9  1  0  0  0  0
 18  9  1  0  0  0  0
 20 11  1  0  0  0  0
 21 11  1  0  0  0  0
 22 14  1  0  0  0  0
 23 15  1  0  0  0  0
 25 15  1  0  0  0  0
M  END
