omegapdb_1z1r_24.log
 OpenBabel09261812563D

 66 68  0  0  1  0  0  0  0  0999 V2000
    0.5561   -1.1417    0.3760 C   0  0  2  0  0  0  0  0  0  0  0  0
    0.8491   -0.1534    1.5233 C   0  0  0  0  0  0  0  0  0  0  0  0
   -0.0854    1.0306    1.4558 C   0  0  0  0  0  0  0  0  0  0  0  0
   -1.1414    1.1723    2.3552 C   0  0  0  0  0  0  0  0  0  0  0  0
   -2.1036    2.1634    2.1875 C   0  0  0  0  0  0  0  0  0  0  0  0
   -2.0286    3.0135    1.0862 C   0  0  0  0  0  0  0  0  0  0  0  0
   -0.9393    2.9324    0.2208 C   0  0  0  0  0  0  0  0  0  0  0  0
    0.0217    1.9477    0.4078 C   0  0  0  0  0  0  0  0  0  0  0  0
   -3.0043    3.9345    0.8083 O   0  0  0  0  0  0  0  0  0  0  0  0
   -4.3187    3.4100    0.6046 C   0  0  0  0  0  0  0  0  0  0  0  0
   -4.4592    2.5128   -0.6253 C   0  0  0  0  0  0  0  0  0  0  0  0
   -3.9806    1.0724   -0.4426 C   0  0  0  0  0  0  0  0  0  0  0  0
   -4.2857    0.2142   -1.6588 C   0  0  0  0  0  0  0  0  0  0  0  0
   -4.7996    0.6593   -2.6686 O   0  0  0  0  0  0  0  0  0  0  0  0
   -3.9756   -1.1271   -1.5616 N   0  0  0  0  0  0  0  0  0  0  0  0
   -3.1065   -1.7028   -0.5638 C   0  0  2  0  0  0  0  0  0  0  0  0
   -1.6348   -1.2695   -0.7528 C   0  0  0  0  0  0  0  0  0  0  0  0
   -1.2290   -0.8213   -1.8133 O   0  0  0  0  0  0  0  0  0  0  0  0
   -0.8549   -1.4627    0.3413 N   0  0  0  0  0  0  0  0  0  0  0  0
   -3.2157   -3.2365   -0.6103 C   0  0  0  0  0  0  0  0  0  0  0  0
   -2.4617   -3.8481    0.5634 C   0  0  0  0  0  0  0  0  0  0  0  0
   -2.6382   -3.4376    1.7034 O   0  0  0  0  0  0  0  0  0  0  0  0
   -1.5767   -4.8328    0.2743 N   0  0  0  0  0  0  0  0  0  0  0  0
    1.3625   -2.4496    0.4413 C   0  0  2  0  0  0  0  0  0  0  0  0
    0.9657   -3.2741    1.5286 O   0  0  0  0  0  0  0  0  0  0  0  0
    2.8794   -2.2520    0.4649 C   0  0  0  0  0  0  0  0  0  0  0  0
    3.3199   -1.4910   -0.7004 N   0  0  0  0  0  0  0  0  0  0  0  0
    4.7048   -0.5598   -0.6112 S   0  0  0  0  0  0  0  0  0  0  0  0
    5.3386   -0.7022   -1.9116 O   0  0  0  0  0  0  0  0  0  0  0  0
    5.3987   -0.8677    0.6296 O   0  0  0  0  0  0  0  0  0  0  0  0
    4.0931    1.1039   -0.4730 C   0  0  0  0  0  0  0  0  0  0  0  0
    3.6215    1.7482   -1.6142 C   0  0  0  0  0  0  0  0  0  0  0  0
    3.1434    3.0485   -1.5027 C   0  0  0  0  0  0  0  0  0  0  0  0
    3.1376    3.6875   -0.2633 C   0  0  0  0  0  0  0  0  0  0  0  0
    3.6185    3.0343    0.8673 C   0  0  0  0  0  0  0  0  0  0  0  0
    4.1076    1.7345    0.7664 C   0  0  0  0  0  0  0  0  0  0  0  0
    0.7814   -0.6528   -0.5761 H   0  0  0  0  0  0  0  0  0  0  0  0
    1.8914    0.1806    1.4529 H   0  0  0  0  0  0  0  0  0  0  0  0
    0.7307   -0.6569    2.4943 H   0  0  0  0  0  0  0  0  0  0  0  0
   -1.2305    0.4809    3.1919 H   0  0  0  0  0  0  0  0  0  0  0  0
   -2.9301    2.2518    2.8878 H   0  0  0  0  0  0  0  0  0  0  0  0
   -0.8902    3.6180   -0.6204 H   0  0  0  0  0  0  0  0  0  0  0  0
    0.8441    1.8634   -0.3010 H   0  0  0  0  0  0  0  0  0  0  0  0
   -4.9392    4.3015    0.4813 H   0  0  0  0  0  0  0  0  0  0  0  0
   -4.6651    2.8874    1.5086 H   0  0  0  0  0  0  0  0  0  0  0  0
   -5.5183    2.4901   -0.9073 H   0  0  0  0  0  0  0  0  0  0  0  0
   -3.9352    2.9760   -1.4682 H   0  0  0  0  0  0  0  0  0  0  0  0
   -4.4488    0.6239    0.4452 H   0  0  0  0  0  0  0  0  0  0  0  0
   -2.8991    1.0341   -0.2697 H   0  0  0  0  0  0  0  0  0  0  0  0
   -3.9704   -1.5702   -2.4720 H   0  0  0  0  0  0  0  0  0  0  0  0
   -3.4413   -1.3926    0.4314 H   0  0  0  0  0  0  0  0  0  0  0  0
   -1.2716   -1.8638    1.1733 H   0  0  0  0  0  0  0  0  0  0  0  0
   -4.2729   -3.5080   -0.5211 H   0  0  0  0  0  0  0  0  0  0  0  0
   -2.8487   -3.6115   -1.5740 H   0  0  0  0  0  0  0  0  0  0  0  0
   -1.3182   -5.0325   -0.6788 H   0  0  0  0  0  0  0  0  0  0  0  0
   -0.9075   -5.0621    0.9976 H   0  0  0  0  0  0  0  0  0  0  0  0
    1.0911   -3.0288   -0.4506 H   0  0  0  0  0  0  0  0  0  0  0  0
    1.2535   -2.8570    2.3521 H   0  0  0  0  0  0  0  0  0  0  0  0
    3.1780   -1.6990    1.3617 H   0  0  0  0  0  0  0  0  0  0  0  0
    3.3654   -3.2337    0.5252 H   0  0  0  0  0  0  0  0  0  0  0  0
    3.3381   -2.0095   -1.5727 H   0  0  0  0  0  0  0  0  0  0  0  0
    3.6481    1.2407   -2.5743 H   0  0  0  0  0  0  0  0  0  0  0  0
    2.7769    3.5651   -2.3854 H   0  0  0  0  0  0  0  0  0  0  0  0
    2.7566    4.7018   -0.1799 H   0  0  0  0  0  0  0  0  0  0  0  0
    3.6204    3.5383    1.8295 H   0  0  0  0  0  0  0  0  0  0  0  0
    4.5146    1.2143    1.6288 H   0  0  0  0  0  0  0  0  0  0  0  0
  1 37  1  6  0  0  0
  1 24  1  0  0  0  0
  1  2  1  0  0  0  0
  2 39  1  0  0  0  0
  3  2  1  0  0  0  0
  3  4  2  0  0  0  0
  4 40  1  0  0  0  0
  5  4  1  0  0  0  0
  5 41  1  0  0  0  0
  6  5  2  0  0  0  0
  7  8  2  0  0  0  0
  7  6  1  0  0  0  0
  8  3  1  0  0  0  0
  9  6  1  0  0  0  0
 10  9  1  0  0  0  0
 10 45  1  0  0  0  0
 11 12  1  0  0  0  0
 11 10  1  0  0  0  0
 12 49  1  0  0  0  0
 12 48  1  0  0  0  0
 13 15  1  0  0  0  0
 13 12  1  0  0  0  0
 14 13  2  0  0  0  0
 15 16  1  0  0  0  0
 16 51  1  1  0  0  0
 17 16  1  0  0  0  0
 17 19  1  0  0  0  0
 18 17  2  0  0  0  0
 19  1  1  0  0  0  0
 19 52  1  0  0  0  0
 20 16  1  0  0  0  0
 20 53  1  0  0  0  0
 20 21  1  0  0  0  0
 21 22  2  0  0  0  0
 23 21  1  0  0  0  0
 23 56  1  0  0  0  0
 24 57  1  6  0  0  0
 24 26  1  0  0  0  0
 24 25  1  0  0  0  0
 25 58  1  0  0  0  0
 26 60  1  0  0  0  0
 26 59  1  0  0  0  0
 27 28  1  0  0  0  0
 27 26  1  0  0  0  0
 28 31  1  0  0  0  0
 28 30  2  0  0  0  0
 29 28  2  0  0  0  0
 31 36  2  0  0  0  0
 32 33  2  0  0  0  0
 32 31  1  0  0  0  0
 33 34  1  0  0  0  0
 34 64  1  0  0  0  0
 34 35  2  0  0  0  0
 35 65  1  0  0  0  0
 36 35  1  0  0  0  0
 36 66  1  0  0  0  0
 38  2  1  0  0  0  0
 42  7  1  0  0  0  0
 43  8  1  0  0  0  0
 44 10  1  0  0  0  0
 46 11  1  0  0  0  0
 47 11  1  0  0  0  0
 50 15  1  0  0  0  0
 54 20  1  0  0  0  0
 55 23  1  0  0  0  0
 61 27  1  0  0  0  0
 62 32  1  0  0  0  0
 63 33  1  0  0  0  0
M  END
