omegapdb_1xom_02.log
 OpenBabel09261812563D

 50 52  0  0  1  0  0  0  0  0999 V2000
    5.6848    2.4284    0.4777 O   0  0  0  0  0  0  0  0  0  0  0  0
    5.4681    1.3426   -0.2954 C   0  0  0  0  0  0  0  0  0  0  0  0
    6.3636    0.7786   -0.8762 O   0  0  0  0  0  0  0  0  0  0  0  0
    4.0052    0.9585   -0.3315 C   0  0  1  0  0  0  0  0  0  0  0  0
    3.7835   -0.2666   -1.2184 C   0  0  0  0  0  0  0  0  0  0  0  0
    2.3068   -0.6577   -1.2610 C   0  0  0  0  0  0  0  0  0  0  0  0
    1.7067   -0.8988    0.1486 C   0  0  2  0  0  0  0  0  0  0  0  0
    1.9757    0.3408    1.0404 C   0  0  0  0  0  0  0  0  0  0  0  0
    3.4537    0.7290    1.0855 C   0  0  0  0  0  0  0  0  0  0  0  0
    2.4207   -2.0430    0.7537 C   0  0  0  0  0  0  0  0  0  0  0  0
    3.0068   -2.9209    1.2280 N   0  0  0  0  0  0  0  0  0  0  0  0
    0.2094   -1.2072    0.0594 C   0  0  0  0  0  0  0  0  0  0  0  0
   -0.3321   -2.4265    0.4427 C   0  0  0  0  0  0  0  0  0  0  0  0
   -1.7018   -2.6760    0.3289 C   0  0  0  0  0  0  0  0  0  0  0  0
   -2.5580   -1.7039   -0.1729 C   0  0  0  0  0  0  0  0  0  0  0  0
   -3.8980   -1.8541   -0.3380 O   0  0  0  0  0  0  0  0  0  0  0  0
   -4.4589   -3.1056   -0.0002 C   0  0  0  0  0  0  0  0  0  0  0  0
   -2.0218   -0.4567   -0.5535 C   0  0  0  0  0  0  0  0  0  0  0  0
   -0.6624   -0.2289   -0.4374 C   0  0  0  0  0  0  0  0  0  0  0  0
   -2.8180    0.5145   -1.0963 O   0  0  0  0  0  0  0  0  0  0  0  0
   -3.7116    1.1567   -0.1865 C   0  0  0  0  0  0  0  0  0  0  0  0
   -4.6447    2.0763   -0.9711 C   0  0  0  0  0  0  0  0  0  0  0  0
   -5.1070    3.1433    0.0469 C   0  0  0  0  0  0  0  0  0  0  0  0
   -4.1902    2.9735    1.2870 C   0  0  0  0  0  0  0  0  0  0  0  0
   -3.0282    2.0980    0.8055 C   0  0  0  0  0  0  0  0  0  0  0  0
    6.6413    2.5946    0.4413 H   0  0  0  0  0  0  0  0  0  0  0  0
    3.4727    1.8215   -0.7608 H   0  0  0  0  0  0  0  0  0  0  0  0
    4.3864   -1.0991   -0.8356 H   0  0  0  0  0  0  0  0  0  0  0  0
    4.1463   -0.0668   -2.2316 H   0  0  0  0  0  0  0  0  0  0  0  0
    1.7228    0.1427   -1.7332 H   0  0  0  0  0  0  0  0  0  0  0  0
    2.1625   -1.5563   -1.8704 H   0  0  0  0  0  0  0  0  0  0  0  0
    1.3922    1.1761    0.6338 H   0  0  0  0  0  0  0  0  0  0  0  0
    1.5964    0.1488    2.0500 H   0  0  0  0  0  0  0  0  0  0  0  0
    3.5810    1.6344    1.6868 H   0  0  0  0  0  0  0  0  0  0  0  0
    4.0312   -0.0666    1.5755 H   0  0  0  0  0  0  0  0  0  0  0  0
    0.3094   -3.2108    0.8352 H   0  0  0  0  0  0  0  0  0  0  0  0
   -2.0842   -3.6454    0.6311 H   0  0  0  0  0  0  0  0  0  0  0  0
   -5.5251   -3.0252   -0.2168 H   0  0  0  0  0  0  0  0  0  0  0  0
   -4.3201   -3.3336    1.0644 H   0  0  0  0  0  0  0  0  0  0  0  0
   -4.0247   -3.9131   -0.6031 H   0  0  0  0  0  0  0  0  0  0  0  0
   -0.3030    0.7451   -0.7607 H   0  0  0  0  0  0  0  0  0  0  0  0
   -4.2868    0.3935    0.3533 H   0  0  0  0  0  0  0  0  0  0  0  0
   -5.4699    1.5299   -1.4366 H   0  0  0  0  0  0  0  0  0  0  0  0
   -4.0562    2.5295   -1.7772 H   0  0  0  0  0  0  0  0  0  0  0  0
   -6.1596    3.0132    0.3177 H   0  0  0  0  0  0  0  0  0  0  0  0
   -5.0156    4.1476   -0.3784 H   0  0  0  0  0  0  0  0  0  0  0  0
   -3.8531    3.9299    1.6980 H   0  0  0  0  0  0  0  0  0  0  0  0
   -4.7322    2.4568    2.0882 H   0  0  0  0  0  0  0  0  0  0  0  0
   -2.5080    1.5762    1.6156 H   0  0  0  0  0  0  0  0  0  0  0  0
   -2.2896    2.6971    0.2557 H   0  0  0  0  0  0  0  0  0  0  0  0
  2  1  1  0  0  0  0
  3  2  2  0  0  0  0
  4 27  1  6  0  0  0
  4  2  1  0  0  0  0
  4  9  1  0  0  0  0
  5 28  1  0  0  0  0
  5  4  1  0  0  0  0
  6  5  1  0  0  0  0
  6  7  1  0  0  0  0
  7 10  1  1  0  0  0
  7  8  1  0  0  0  0
  8  9  1  0  0  0  0
  8 33  1  0  0  0  0
  9 35  1  0  0  0  0
  9 34  1  0  0  0  0
 10 11  3  0  0  0  0
 12  7  1  0  0  0  0
 12 13  2  0  0  0  0
 13 36  1  0  0  0  0
 14 13  1  0  0  0  0
 14 37  1  0  0  0  0
 15 14  2  0  0  0  0
 16 15  1  0  0  0  0
 16 17  1  0  0  0  0
 17 39  1  0  0  0  0
 18 19  2  0  0  0  0
 18 15  1  0  0  0  0
 19 12  1  0  0  0  0
 20 18  1  0  0  0  0
 20 21  1  0  0  0  0
 21 42  1  0  0  0  0
 21 25  1  0  0  0  0
 22 21  1  0  0  0  0
 22 23  1  0  0  0  0
 23 45  1  0  0  0  0
 23 24  1  0  0  0  0
 24 47  1  0  0  0  0
 24 48  1  0  0  0  0
 25 24  1  0  0  0  0
 25 49  1  0  0  0  0
 26  1  1  0  0  0  0
 29  5  1  0  0  0  0
 30  6  1  0  0  0  0
 31  6  1  0  0  0  0
 32  8  1  0  0  0  0
 38 17  1  0  0  0  0
 40 17  1  0  0  0  0
 41 19  1  0  0  0  0
 43 22  1  0  0  0  0
 44 22  1  0  0  0  0
 46 23  1  0  0  0  0
 50 25  1  0  0  0  0
M  END
