omegapdb_1gs5_20.log
 OpenBabel09261812563D

 24 23  0  0  1  0  0  0  0  0999 V2000
    0.7667    0.6681   -0.5342 C   0  0  2  0  0  0  0  0  0  0  0  0
    0.5849    2.0341    0.1194 C   0  0  0  0  0  0  0  0  0  0  0  0
    0.9340    2.2831    1.2453 O   0  0  0  0  0  0  0  0  0  0  0  0
   -0.0417    2.9597   -0.6250 O   0  0  0  0  0  0  0  0  0  0  0  0
   -0.5944    0.0163   -0.8363 C   0  0  0  0  0  0  0  0  0  0  0  0
   -1.4456   -0.1836    0.4107 C   0  0  0  0  0  0  0  0  0  0  0  0
   -2.7911   -0.8048    0.0781 C   0  0  0  0  0  0  0  0  0  0  0  0
   -3.1839   -1.0111   -1.0381 O   0  0  0  0  0  0  0  0  0  0  0  0
   -3.5648   -1.1125    1.1431 O   0  0  0  0  0  0  0  0  0  0  0  0
    1.5784   -0.1336    0.3493 N   0  0  0  0  0  0  0  0  0  0  0  0
    2.2904   -1.1909   -0.1418 C   0  0  0  0  0  0  0  0  0  0  0  0
    2.1591   -1.5717   -1.2943 O   0  0  0  0  0  0  0  0  0  0  0  0
    3.2498   -1.8420    0.8312 C   0  0  0  0  0  0  0  0  0  0  0  0
    1.2993    0.7901   -1.4885 H   0  0  0  0  0  0  0  0  0  0  0  0
   -0.2389    2.6113   -1.5067 H   0  0  0  0  0  0  0  0  0  0  0  0
   -1.1565    0.6093   -1.5677 H   0  0  0  0  0  0  0  0  0  0  0  0
   -0.3960   -0.9454   -1.3167 H   0  0  0  0  0  0  0  0  0  0  0  0
   -0.9162   -0.8235    1.1285 H   0  0  0  0  0  0  0  0  0  0  0  0
   -1.6324    0.7713    0.9242 H   0  0  0  0  0  0  0  0  0  0  0  0
   -3.1082   -0.8860    1.9652 H   0  0  0  0  0  0  0  0  0  0  0  0
    1.8053    0.2851    1.2420 H   0  0  0  0  0  0  0  0  0  0  0  0
    3.1877   -2.9254    0.7106 H   0  0  0  0  0  0  0  0  0  0  0  0
    4.2707   -1.5377    0.5796 H   0  0  0  0  0  0  0  0  0  0  0  0
    3.0504   -1.5777    1.8735 H   0  0  0  0  0  0  0  0  0  0  0  0
  1 14  1  6  0  0  0
  1  2  1  0  0  0  0
  1 10  1  0  0  0  0
  2  3  2  0  0  0  0
  4  2  1  0  0  0  0
  5  1  1  0  0  0  0
  5  6  1  0  0  0  0
  6 19  1  0  0  0  0
  6 18  1  0  0  0  0
  7  6  1  0  0  0  0
  7  9  1  0  0  0  0
  8  7  2  0  0  0  0
  9 20  1  0  0  0  0
 10 21  1  0  0  0  0
 11 10  1  0  0  0  0
 11 13  1  0  0  0  0
 12 11  2  0  0  0  0
 13 24  1  0  0  0  0
 15  4  1  0  0  0  0
 16  5  1  0  0  0  0
 17  5  1  0  0  0  0
 22 13  1  0  0  0  0
 23 13  1  0  0  0  0
M  END
