omegapdb_2byh_07.log
 OpenBabel09261812563D

 40 42  0  0  0  0  0  0  0  0999 V2000
   -6.7268   -0.4972    0.1860 O   0  0  0  0  0  0  0  0  0  0  0  0
   -5.8543    0.3472    0.2560 C   0  0  0  0  0  0  0  0  0  0  0  0
   -6.2060    1.8132    0.4097 C   0  0  0  0  0  0  0  0  0  0  0  0
   -4.4103   -0.0376    0.1902 C   0  0  0  0  0  0  0  0  0  0  0  0
   -3.3716    0.8934    0.2718 C   0  0  0  0  0  0  0  0  0  0  0  0
   -2.0512    0.4808    0.2035 C   0  0  0  0  0  0  0  0  0  0  0  0
   -1.7392   -0.8761    0.0535 C   0  0  0  0  0  0  0  0  0  0  0  0
   -2.7705   -1.8190   -0.0314 C   0  0  0  0  0  0  0  0  0  0  0  0
   -4.0866   -1.3874    0.0378 C   0  0  0  0  0  0  0  0  0  0  0  0
   -0.3749   -1.2069   -0.0004 N   0  0  0  0  0  0  0  0  0  0  0  0
    0.1996   -2.4270   -0.2597 C   0  0  0  0  0  0  0  0  0  0  0  0
   -0.4282   -3.4558   -0.4453 O   0  0  0  0  0  0  0  0  0  0  0  0
    1.6863   -2.4405   -0.3046 C   0  0  0  0  0  0  0  0  0  0  0  0
    2.4283   -3.6316   -0.4900 C   0  0  0  0  0  0  0  0  0  0  0  0
    3.7298   -3.4146   -0.4703 N   0  0  0  0  0  0  0  0  0  0  0  0
    3.8404   -2.0920   -0.2682 N   0  0  0  0  0  0  0  0  0  0  0  0
    2.6476   -1.4462   -0.1771 C   0  0  0  0  0  0  0  0  0  0  0  0
    2.5863    0.0129    0.0494 C   0  0  0  0  0  0  0  0  0  0  0  0
    2.0344    0.8766   -0.9052 C   0  0  0  0  0  0  0  0  0  0  0  0
    1.9664    2.2409   -0.6892 C   0  0  0  0  0  0  0  0  0  0  0  0
    1.2698    3.2850   -1.8806 Cl  0  0  0  0  0  0  0  0  0  0  0  0
    2.4747    2.7835    0.5029 C   0  0  0  0  0  0  0  0  0  0  0  0
    2.3948    4.1180    0.6726 O   0  0  0  0  0  0  0  0  0  0  0  0
    3.0288    1.9380    1.4575 C   0  0  0  0  0  0  0  0  0  0  0  0
    3.0821    0.5632    1.2419 C   0  0  0  0  0  0  0  0  0  0  0  0
    3.6250   -0.1891    2.2265 O   0  0  0  0  0  0  0  0  0  0  0  0
   -5.8141    2.3977   -0.4302 H   0  0  0  0  0  0  0  0  0  0  0  0
   -7.2922    1.9100    0.4433 H   0  0  0  0  0  0  0  0  0  0  0  0
   -5.7751    2.2249    1.3291 H   0  0  0  0  0  0  0  0  0  0  0  0
   -3.5840    1.9531    0.3869 H   0  0  0  0  0  0  0  0  0  0  0  0
   -1.2489    1.2158    0.2570 H   0  0  0  0  0  0  0  0  0  0  0  0
   -2.5306   -2.8665   -0.1535 H   0  0  0  0  0  0  0  0  0  0  0  0
   -4.9005   -2.1039   -0.0253 H   0  0  0  0  0  0  0  0  0  0  0  0
    0.2561   -0.4319    0.1482 H   0  0  0  0  0  0  0  0  0  0  0  0
    2.0292   -4.6273   -0.6279 H   0  0  0  0  0  0  0  0  0  0  0  0
    4.7542   -1.6629   -0.3032 H   0  0  0  0  0  0  0  0  0  0  0  0
    1.6504    0.4679   -1.8363 H   0  0  0  0  0  0  0  0  0  0  0  0
    2.7785    4.3567    1.5266 H   0  0  0  0  0  0  0  0  0  0  0  0
    3.4178    2.3318    2.3931 H   0  0  0  0  0  0  0  0  0  0  0  0
    3.5183   -1.1287    2.0151 H   0  0  0  0  0  0  0  0  0  0  0  0
  1  2  2  0  0  0  0
  2  3  1  0  0  0  0
  3 28  1  0  0  0  0
  3 29  1  0  0  0  0
  4  2  1  0  0  0  0
  4  5  2  0  0  0  0
  5 30  1  0  0  0  0
  6 31  1  0  0  0  0
  6  5  1  0  0  0  0
  7  6  2  0  0  0  0
  8  9  2  0  0  0  0
  8  7  1  0  0  0  0
  9  4  1  0  0  0  0
 10  7  1  0  0  0  0
 10 34  1  0  0  0  0
 11 10  1  0  0  0  0
 12 11  2  0  0  0  0
 13 11  1  0  0  0  0
 13 17  2  0  0  0  0
 14 15  2  0  0  0  0
 14 13  1  0  0  0  0
 15 16  1  0  0  0  0
 16 17  1  0  0  0  0
 17 18  1  0  0  0  0
 18 25  2  0  0  0  0
 19 20  2  0  0  0  0
 19 18  1  0  0  0  0
 20 22  1  0  0  0  0
 21 20  1  0  0  0  0
 22 23  1  0  0  0  0
 22 24  2  0  0  0  0
 23 38  1  0  0  0  0
 24 39  1  0  0  0  0
 25 24  1  0  0  0  0
 25 26  1  0  0  0  0
 27  3  1  0  0  0  0
 32  8  1  0  0  0  0
 33  9  1  0  0  0  0
 35 14  1  0  0  0  0
 36 16  1  0  0  0  0
 37 19  1  0  0  0  0
 40 26  1  0  0  0  0
M  END
