omegapdb_1gs5_22.log
 OpenBabel09261812563D

 24 23  0  0  1  0  0  0  0  0999 V2000
   -0.5507    0.3886    0.7179 C   0  0  2  0  0  0  0  0  0  0  0  0
   -1.0134    1.6642   -0.0172 C   0  0  0  0  0  0  0  0  0  0  0  0
   -2.1394    1.8475   -0.3872 O   0  0  0  0  0  0  0  0  0  0  0  0
   -0.0781    2.6266   -0.1804 O   0  0  0  0  0  0  0  0  0  0  0  0
    0.6369   -0.3503    0.0697 C   0  0  0  0  0  0  0  0  0  0  0  0
    1.9813    0.3695    0.1603 C   0  0  0  0  0  0  0  0  0  0  0  0
    3.1426   -0.5877   -0.0071 C   0  0  0  0  0  0  0  0  0  0  0  0
    3.0865   -1.7887    0.0771 O   0  0  0  0  0  0  0  0  0  0  0  0
    4.2901    0.0762   -0.2436 O   0  0  0  0  0  0  0  0  0  0  0  0
   -1.6830   -0.4925    0.9193 N   0  0  0  0  0  0  0  0  0  0  0  0
   -2.3344   -1.0583   -0.1616 C   0  0  0  0  0  0  0  0  0  0  0  0
   -1.8209   -1.1663   -1.2579 O   0  0  0  0  0  0  0  0  0  0  0  0
   -3.7348   -1.5452    0.1406 C   0  0  0  0  0  0  0  0  0  0  0  0
   -0.2313    0.7118    1.7205 H   0  0  0  0  0  0  0  0  0  0  0  0
    0.7573    2.3677    0.2307 H   0  0  0  0  0  0  0  0  0  0  0  0
    0.7280   -1.3083    0.5897 H   0  0  0  0  0  0  0  0  0  0  0  0
    0.3949   -0.5844   -0.9681 H   0  0  0  0  0  0  0  0  0  0  0  0
    2.1264    0.8448    1.1437 H   0  0  0  0  0  0  0  0  0  0  0  0
    2.1000    1.1514   -0.5989 H   0  0  0  0  0  0  0  0  0  0  0  0
    4.9850   -0.5991   -0.3165 H   0  0  0  0  0  0  0  0  0  0  0  0
   -2.2913   -0.2223    1.6797 H   0  0  0  0  0  0  0  0  0  0  0  0
   -4.4244   -0.6972    0.0639 H   0  0  0  0  0  0  0  0  0  0  0  0
   -4.0166   -2.2911   -0.6032 H   0  0  0  0  0  0  0  0  0  0  0  0
   -3.8186   -1.9732    1.1445 H   0  0  0  0  0  0  0  0  0  0  0  0
  1 10  1  0  0  0  0
  1 14  1  1  0  0  0
  2  1  1  0  0  0  0
  3  2  2  0  0  0  0
  4  2  1  0  0  0  0
  4 15  1  0  0  0  0
  5  6  1  0  0  0  0
  5 16  1  0  0  0  0
  5  1  1  0  0  0  0
  6 18  1  0  0  0  0
  7  8  2  0  0  0  0
  7  6  1  0  0  0  0
  9  7  1  0  0  0  0
 10 21  1  0  0  0  0
 11 13  1  0  0  0  0
 11 10  1  0  0  0  0
 12 11  2  0  0  0  0
 13 24  1  0  0  0  0
 17  5  1  0  0  0  0
 19  6  1  0  0  0  0
 20  9  1  0  0  0  0
 22 13  1  0  0  0  0
 23 13  1  0  0  0  0
M  END
