omegapdb_1v2k_08.log
 OpenBabel09261812563D

 61 65  0  0  0  0  0  0  0  0999 V2000
  -10.1173    0.4918    0.2944 N   0  0  0  0  0  0  0  0  0  0  0  0
   -9.5606   -0.6133    0.7873 C   0  0  0  0  0  0  0  0  0  0  0  0
   -8.2530   -1.0208    0.5508 C   0  0  0  0  0  0  0  0  0  0  0  0
   -7.4264   -0.2401   -0.2708 C   0  0  0  0  0  0  0  0  0  0  0  0
   -8.0098    0.9276   -0.7948 C   0  0  0  0  0  0  0  0  0  0  0  0
   -9.3235    1.2340   -0.4847 C   0  0  0  0  0  0  0  0  0  0  0  0
   -6.1190   -0.6038   -0.5954 N   0  0  0  0  0  0  0  0  0  0  0  0
   -5.0952    0.4379   -0.5585 C   0  0  0  0  0  0  0  0  0  0  0  0
   -3.9000    0.0590   -1.4271 C   0  0  0  0  0  0  0  0  0  0  0  0
   -3.2851   -1.2758   -0.9708 C   0  0  0  0  0  0  0  0  0  0  0  0
   -4.3900   -2.3350   -0.8925 C   0  0  0  0  0  0  0  0  0  0  0  0
   -5.6258   -1.8893   -0.1099 C   0  0  0  0  0  0  0  0  0  0  0  0
   -2.5602   -1.1259    0.3680 C   0  0  0  0  0  0  0  0  0  0  0  0
   -3.0048   -1.6125    1.4010 O   0  0  0  0  0  0  0  0  0  0  0  0
   -1.4010   -0.3963    0.3975 N   0  0  0  0  0  0  0  0  0  0  0  0
   -0.6649    0.1107   -0.7551 C   0  0  0  0  0  0  0  0  0  0  0  0
    0.8315   -0.0379   -0.5007 C   0  0  0  0  0  0  0  0  0  0  0  0
    1.2481    0.7264    0.6857 N   0  0  0  0  0  0  0  0  0  0  0  0
    0.1830    0.9633    1.6809 C   0  0  0  0  0  0  0  0  0  0  0  0
   -0.7585   -0.2286    1.7013 C   0  0  0  0  0  0  0  0  0  0  0  0
    2.2052    2.0631    0.3842 S   0  0  0  0  0  0  0  0  0  0  0  0
    1.7329    2.7900   -0.7901 O   0  0  0  0  0  0  0  0  0  0  0  0
    2.3368    2.7426    1.6619 O   0  0  0  0  0  0  0  0  0  0  0  0
    3.7518    1.3058   -0.0600 C   0  0  0  0  0  0  0  0  0  0  0  0
    4.3967    0.5220    0.8601 C   0  0  0  0  0  0  0  0  0  0  0  0
    5.6441   -0.0631    0.5353 C   0  0  0  0  0  0  0  0  0  0  0  0
    6.2090    0.1805   -0.7445 C   0  0  0  0  0  0  0  0  0  0  0  0
    5.5115    1.0073   -1.6653 C   0  0  0  0  0  0  0  0  0  0  0  0
    4.3056    1.5650   -1.3351 C   0  0  0  0  0  0  0  0  0  0  0  0
    7.4596   -0.4089   -1.0725 C   0  0  0  0  0  0  0  0  0  0  0  0
    8.0990   -1.1972   -0.1578 C   0  0  0  0  0  0  0  0  0  0  0  0
    7.5476   -1.4469    1.1241 C   0  0  0  0  0  0  0  0  0  0  0  0
    6.3464   -0.8884    1.4566 C   0  0  0  0  0  0  0  0  0  0  0  0
    9.6274   -1.9214   -0.5537 Cl  0  0  0  0  0  0  0  0  0  0  0  0
  -10.1972   -1.2220    1.4292 H   0  0  0  0  0  0  0  0  0  0  0  0
   -7.8921   -1.9244    1.0281 H   0  0  0  0  0  0  0  0  0  0  0  0
   -7.4603    1.5784   -1.4673 H   0  0  0  0  0  0  0  0  0  0  0  0
   -9.7730    2.1357   -0.8994 H   0  0  0  0  0  0  0  0  0  0  0  0
   -5.5165    1.3781   -0.9164 H   0  0  0  0  0  0  0  0  0  0  0  0
   -4.7642    0.6066    0.4819 H   0  0  0  0  0  0  0  0  0  0  0  0
   -4.2393   -0.0450   -2.4646 H   0  0  0  0  0  0  0  0  0  0  0  0
   -3.1628    0.8700   -1.4010 H   0  0  0  0  0  0  0  0  0  0  0  0
   -2.5581   -1.6052   -1.7240 H   0  0  0  0  0  0  0  0  0  0  0  0
   -4.0017   -3.2514   -0.4375 H   0  0  0  0  0  0  0  0  0  0  0  0
   -4.6961   -2.5732   -1.9188 H   0  0  0  0  0  0  0  0  0  0  0  0
   -6.4083   -2.6376   -0.2645 H   0  0  0  0  0  0  0  0  0  0  0  0
   -5.3902   -1.8506    0.9633 H   0  0  0  0  0  0  0  0  0  0  0  0
   -0.8900    1.1692   -0.9463 H   0  0  0  0  0  0  0  0  0  0  0  0
   -0.9317   -0.4524   -1.6520 H   0  0  0  0  0  0  0  0  0  0  0  0
    1.3828    0.3119   -1.3776 H   0  0  0  0  0  0  0  0  0  0  0  0
    1.0795   -1.0946   -0.3472 H   0  0  0  0  0  0  0  0  0  0  0  0
   -0.3867    1.8755    1.4550 H   0  0  0  0  0  0  0  0  0  0  0  0
    0.6439    1.0943    2.6616 H   0  0  0  0  0  0  0  0  0  0  0  0
   -0.2167   -1.1410    1.9851 H   0  0  0  0  0  0  0  0  0  0  0  0
   -1.5367   -0.0737    2.4516 H   0  0  0  0  0  0  0  0  0  0  0  0
    3.9541    0.3440    1.8373 H   0  0  0  0  0  0  0  0  0  0  0  0
    5.9526    1.1950   -2.6412 H   0  0  0  0  0  0  0  0  0  0  0  0
    3.7633    2.2047   -2.0245 H   0  0  0  0  0  0  0  0  0  0  0  0
    7.9014   -0.2291   -2.0485 H   0  0  0  0  0  0  0  0  0  0  0  0
    8.0895   -2.0776    1.8216 H   0  0  0  0  0  0  0  0  0  0  0  0
    5.9121   -1.0699    2.4367 H   0  0  0  0  0  0  0  0  0  0  0  0
  1  2  2  0  0  0  0
  2 35  1  0  0  0  0
  3  2  1  0  0  0  0
  3 36  1  0  0  0  0
  4  3  2  0  0  0  0
  5  6  2  0  0  0  0
  5  4  1  0  0  0  0
  6  1  1  0  0  0  0
  7  8  1  0  0  0  0
  7  4  1  0  0  0  0
  7 12  1  0  0  0  0
  8 40  1  0  0  0  0
  9 42  1  0  0  0  0
  9 10  1  0  0  0  0
  9  8  1  0  0  0  0
 10 11  1  0  0  0  0
 10 13  1  0  0  0  0
 11 44  1  0  0  0  0
 11 12  1  0  0  0  0
 12 47  1  0  0  0  0
 13 15  1  0  0  0  0
 13 14  2  0  0  0  0
 15 20  1  0  0  0  0
 16 17  1  0  0  0  0
 16 15  1  0  0  0  0
 17 51  1  0  0  0  0
 17 18  1  0  0  0  0
 18 19  1  0  0  0  0
 19 20  1  0  0  0  0
 19 53  1  0  0  0  0
 20 54  1  0  0  0  0
 20 55  1  0  0  0  0
 21 18  1  0  0  0  0
 21 23  2  0  0  0  0
 22 21  2  0  0  0  0
 24 21  1  0  0  0  0
 24 25  2  0  0  0  0
 25 56  1  0  0  0  0
 26 25  1  0  0  0  0
 26 33  2  0  0  0  0
 27 26  1  0  0  0  0
 28 29  2  0  0  0  0
 28 27  1  0  0  0  0
 29 24  1  0  0  0  0
 30 27  2  0  0  0  0
 30 31  1  0  0  0  0
 31 32  2  0  0  0  0
 32 33  1  0  0  0  0
 32 60  1  0  0  0  0
 33 61  1  0  0  0  0
 34 31  1  0  0  0  0
 37  5  1  0  0  0  0
 38  6  1  0  0  0  0
 39  8  1  0  0  0  0
 41  9  1  0  0  0  0
 43 10  1  0  0  0  0
 45 11  1  0  0  0  0
 46 12  1  0  0  0  0
 48 16  1  0  0  0  0
 49 16  1  0  0  0  0
 50 17  1  0  0  0  0
 52 19  1  0  0  0  0
 57 28  1  0  0  0  0
 58 29  1  0  0  0  0
 59 30  1  0  0  0  0
M  END
