omegapdb_1m5f_06.log
 OpenBabel09261812563D

 25 25  0  0  1  0  0  0  0  0999 V2000
   -2.8940   -2.4089    0.1958 O   0  0  0  0  0  0  0  0  0  0  0  0
   -1.7004   -1.8229    0.0582 C   0  0  0  0  0  0  0  0  0  0  0  0
   -0.6566   -2.4371    0.0213 O   0  0  0  0  0  0  0  0  0  0  0  0
   -1.7704   -0.3449   -0.0382 C   0  0  0  0  0  0  0  0  0  0  0  0
   -2.8678    0.3059    0.2646 N   0  0  0  0  0  0  0  0  0  0  0  0
   -2.5520    1.6235    0.1177 O   0  0  0  0  0  0  0  0  0  0  0  0
   -1.2681    1.7540   -0.2730 C   0  0  0  0  0  0  0  0  0  0  0  0
   -0.7028    0.5243   -0.4043 C   0  0  0  0  0  0  0  0  0  0  0  0
    0.7011    0.1811   -0.7888 C   0  0  0  0  0  0  0  0  0  0  0  0
    1.6122    0.0483    0.4488 C   0  0  2  0  0  0  0  0  0  0  0  0
    1.6810    1.3063    1.1729 N   0  0  0  0  0  0  0  0  0  0  0  0
    2.9891   -0.4281    0.0029 C   0  0  0  0  0  0  0  0  0  0  0  0
    3.9927    0.2461    0.0389 O   0  0  0  0  0  0  0  0  0  0  0  0
    2.9729   -1.6826   -0.4761 O   0  0  0  0  0  0  0  0  0  0  0  0
   -0.7493    3.1377   -0.4315 C   0  0  0  0  0  0  0  0  0  0  0  0
   -2.7176   -3.3617    0.2689 H   0  0  0  0  0  0  0  0  0  0  0  0
    1.1075    0.9687   -1.4375 H   0  0  0  0  0  0  0  0  0  0  0  0
    0.7200   -0.7586   -1.3468 H   0  0  0  0  0  0  0  0  0  0  0  0
    1.1789   -0.7299    1.0870 H   0  0  0  0  0  0  0  0  0  0  0  0
    2.4393    1.8565    0.7733 H   0  0  0  0  0  0  0  0  0  0  0  0
    1.9538    1.1329    2.1356 H   0  0  0  0  0  0  0  0  0  0  0  0
    3.8815   -1.8806   -0.7581 H   0  0  0  0  0  0  0  0  0  0  0  0
   -0.2894    3.4736    0.5029 H   0  0  0  0  0  0  0  0  0  0  0  0
    0.0187    3.1668   -1.2094 H   0  0  0  0  0  0  0  0  0  0  0  0
   -1.5564    3.8226   -0.7030 H   0  0  0  0  0  0  0  0  0  0  0  0
  1 16  1  0  0  0  0
  2  1  1  0  0  0  0
  3  2  2  0  0  0  0
  4  2  1  0  0  0  0
  4  5  2  0  0  0  0
  6  5  1  0  0  0  0
  7  6  1  0  0  0  0
  8  7  2  0  0  0  0
  8  4  1  0  0  0  0
  9  8  1  0  0  0  0
  9 10  1  0  0  0  0
 10 19  1  1  0  0  0
 10 11  1  0  0  0  0
 11 21  1  0  0  0  0
 12 13  2  0  0  0  0
 12 10  1  0  0  0  0
 14 12  1  0  0  0  0
 15  7  1  0  0  0  0
 15 23  1  0  0  0  0
 17  9  1  0  0  0  0
 18  9  1  0  0  0  0
 20 11  1  0  0  0  0
 22 14  1  0  0  0  0
 24 15  1  0  0  0  0
 25 15  1  0  0  0  0
M  END
