omegapdb_1gs5_00.log
 OpenBabel09261812563D

 24 23  0  0  1  0  0  0  0  0999 V2000
    0.4840    0.6147   -0.0335 C   0  0  2  0  0  0  0  0  0  0  0  0
    1.3237    1.8672   -0.2226 C   0  0  0  0  0  0  0  0  0  0  0  0
    2.4943    1.9547    0.0690 O   0  0  0  0  0  0  0  0  0  0  0  0
    0.6090    2.8785   -0.7236 O   0  0  0  0  0  0  0  0  0  0  0  0
   -0.5711    0.8605    1.0627 C   0  0  0  0  0  0  0  0  0  0  0  0
   -1.6200   -0.2531    1.1870 C   0  0  0  0  0  0  0  0  0  0  0  0
   -2.5647   -0.2308   -0.0106 C   0  0  0  0  0  0  0  0  0  0  0  0
   -3.5641    0.4448   -0.0210 O   0  0  0  0  0  0  0  0  0  0  0  0
   -2.1951   -0.9442   -1.0801 O   0  0  0  0  0  0  0  0  0  0  0  0
    1.4068   -0.4583    0.2853 N   0  0  0  0  0  0  0  0  0  0  0  0
    1.2365   -1.7424   -0.0991 C   0  0  0  0  0  0  0  0  0  0  0  0
    0.2045   -2.1578   -0.6271 O   0  0  0  0  0  0  0  0  0  0  0  0
    2.3959   -2.6749    0.1604 C   0  0  0  0  0  0  0  0  0  0  0  0
   -0.0162    0.3926   -0.9837 H   0  0  0  0  0  0  0  0  0  0  0  0
    1.2054    3.6431   -0.7895 H   0  0  0  0  0  0  0  0  0  0  0  0
   -0.0450    0.9782    2.0177 H   0  0  0  0  0  0  0  0  0  0  0  0
   -1.0870    1.8034    0.8501 H   0  0  0  0  0  0  0  0  0  0  0  0
   -1.1406   -1.2298    1.3062 H   0  0  0  0  0  0  0  0  0  0  0  0
   -2.2316   -0.0580    2.0711 H   0  0  0  0  0  0  0  0  0  0  0  0
   -1.3604   -1.4376   -0.9091 H   0  0  0  0  0  0  0  0  0  0  0  0
    2.3168   -0.1519    0.6060 H   0  0  0  0  0  0  0  0  0  0  0  0
    2.7581   -3.0533   -0.7996 H   0  0  0  0  0  0  0  0  0  0  0  0
    2.0338   -3.5312    0.7345 H   0  0  0  0  0  0  0  0  0  0  0  0
    3.2232   -2.2022    0.6956 H   0  0  0  0  0  0  0  0  0  0  0  0
  1 14  1  6  0  0  0
  1 10  1  0  0  0  0
  1  5  1  0  0  0  0
  2  1  1  0  0  0  0
  2  3  2  0  0  0  0
  4  2  1  0  0  0  0
  5  6  1  0  0  0  0
  5 16  1  0  0  0  0
  6 18  1  0  0  0  0
  6 19  1  0  0  0  0
  7  6  1  0  0  0  0
  8  7  2  0  0  0  0
  9 20  1  0  0  0  0
  9  7  1  0  0  0  0
 10 21  1  0  0  0  0
 11 13  1  0  0  0  0
 11 10  1  0  0  0  0
 12 11  2  0  0  0  0
 13 24  1  0  0  0  0
 13 23  1  0  0  0  0
 15  4  1  0  0  0  0
 17  5  1  0  0  0  0
 22 13  1  0  0  0  0
M  END
