omegapdb_1z1r_12.log
 OpenBabel09261812563D

 66 68  0  0  1  0  0  0  0  0999 V2000
   -0.0436   -1.2623   -0.2230 C   0  0  2  0  0  0  0  0  0  0  0  0
   -0.7454   -2.2153   -1.2184 C   0  0  0  0  0  0  0  0  0  0  0  0
   -2.2176   -2.3453   -0.9109 C   0  0  0  0  0  0  0  0  0  0  0  0
   -2.6617   -2.7222    0.3599 C   0  0  0  0  0  0  0  0  0  0  0  0
   -3.9990   -2.6116    0.7192 C   0  0  0  0  0  0  0  0  0  0  0  0
   -4.9226   -2.1265   -0.2066 C   0  0  0  0  0  0  0  0  0  0  0  0
   -4.5187   -1.8606   -1.5109 C   0  0  0  0  0  0  0  0  0  0  0  0
   -3.1723   -1.9544   -1.8492 C   0  0  0  0  0  0  0  0  0  0  0  0
   -6.2275   -1.8867    0.1433 O   0  0  0  0  0  0  0  0  0  0  0  0
   -6.4113   -0.8826    1.1446 C   0  0  0  0  0  0  0  0  0  0  0  0
   -6.3298    0.5428    0.5979 C   0  0  0  0  0  0  0  0  0  0  0  0
   -4.9347    1.0770    0.2568 C   0  0  0  0  0  0  0  0  0  0  0  0
   -4.0657    1.2889    1.4839 C   0  0  0  0  0  0  0  0  0  0  0  0
   -4.4776    1.1535    2.6231 O   0  0  0  0  0  0  0  0  0  0  0  0
   -2.7599    1.6803    1.2697 N   0  0  0  0  0  0  0  0  0  0  0  0
   -2.1040    1.9693    0.0088 C   0  0  2  0  0  0  0  0  0  0  0  0
   -1.4036    0.7718   -0.6575 C   0  0  0  0  0  0  0  0  0  0  0  0
   -1.2595    0.7684   -1.8728 O   0  0  0  0  0  0  0  0  0  0  0  0
   -0.8803   -0.1365    0.1924 N   0  0  0  0  0  0  0  0  0  0  0  0
   -1.0511    3.0762    0.2439 C   0  0  0  0  0  0  0  0  0  0  0  0
   -0.0698    3.2433   -0.9126 C   0  0  0  0  0  0  0  0  0  0  0  0
    1.0460    2.7484   -0.8764 O   0  0  0  0  0  0  0  0  0  0  0  0
   -0.5013    3.9998   -1.9536 N   0  0  0  0  0  0  0  0  0  0  0  0
    1.2783   -0.7237   -0.7807 C   0  0  2  0  0  0  0  0  0  0  0  0
    2.0243   -1.8300   -1.2487 O   0  0  0  0  0  0  0  0  0  0  0  0
    2.0806    0.0411    0.2681 C   0  0  0  0  0  0  0  0  0  0  0  0
    3.1668    0.7428   -0.4243 N   0  0  0  0  0  0  0  0  0  0  0  0
    4.4963    1.1642    0.4934 S   0  0  0  0  0  0  0  0  0  0  0  0
    4.1228    1.4235    1.8781 O   0  0  0  0  0  0  0  0  0  0  0  0
    5.1994    2.1678   -0.2887 O   0  0  0  0  0  0  0  0  0  0  0  0
    5.4275   -0.3514    0.4770 C   0  0  0  0  0  0  0  0  0  0  0  0
    6.0167   -0.7698   -0.7146 C   0  0  0  0  0  0  0  0  0  0  0  0
    6.7440   -1.9525   -0.7264 C   0  0  0  0  0  0  0  0  0  0  0  0
    6.8800   -2.6998    0.4438 C   0  0  0  0  0  0  0  0  0  0  0  0
    6.2955   -2.2656    1.6284 C   0  0  0  0  0  0  0  0  0  0  0  0
    5.5627   -1.0810    1.6511 C   0  0  0  0  0  0  0  0  0  0  0  0
    0.1752   -1.8175    0.6979 H   0  0  0  0  0  0  0  0  0  0  0  0
   -0.6184   -1.8239   -2.2317 H   0  0  0  0  0  0  0  0  0  0  0  0
   -0.2252   -3.1779   -1.1786 H   0  0  0  0  0  0  0  0  0  0  0  0
   -1.9430   -3.0732    1.0999 H   0  0  0  0  0  0  0  0  0  0  0  0
   -4.3280   -2.8733    1.7216 H   0  0  0  0  0  0  0  0  0  0  0  0
   -5.2587   -1.5147   -2.2278 H   0  0  0  0  0  0  0  0  0  0  0  0
   -2.8485   -1.6610   -2.8453 H   0  0  0  0  0  0  0  0  0  0  0  0
   -5.7004   -1.0180    1.9674 H   0  0  0  0  0  0  0  0  0  0  0  0
   -7.4178   -1.0577    1.5344 H   0  0  0  0  0  0  0  0  0  0  0  0
   -6.9572    0.5971   -0.2996 H   0  0  0  0  0  0  0  0  0  0  0  0
   -6.7751    1.2053    1.3487 H   0  0  0  0  0  0  0  0  0  0  0  0
   -5.0437    2.0524   -0.2394 H   0  0  0  0  0  0  0  0  0  0  0  0
   -4.4141    0.4327   -0.4593 H   0  0  0  0  0  0  0  0  0  0  0  0
   -2.2836    1.9322    2.1269 H   0  0  0  0  0  0  0  0  0  0  0  0
   -2.8397    2.3154   -0.7239 H   0  0  0  0  0  0  0  0  0  0  0  0
   -1.2331   -0.1229    1.1378 H   0  0  0  0  0  0  0  0  0  0  0  0
   -1.5641    4.0195    0.4627 H   0  0  0  0  0  0  0  0  0  0  0  0
   -0.4400    2.8092    1.1123 H   0  0  0  0  0  0  0  0  0  0  0  0
    0.0568    3.9686   -2.7947 H   0  0  0  0  0  0  0  0  0  0  0  0
   -1.4814    4.2078   -2.0649 H   0  0  0  0  0  0  0  0  0  0  0  0
    1.0337   -0.0418   -1.6082 H   0  0  0  0  0  0  0  0  0  0  0  0
    2.8857   -1.4759   -1.5149 H   0  0  0  0  0  0  0  0  0  0  0  0
    2.5134   -0.6848    0.9665 H   0  0  0  0  0  0  0  0  0  0  0  0
    1.4575    0.7442    0.8284 H   0  0  0  0  0  0  0  0  0  0  0  0
    2.8141    1.5918   -0.8734 H   0  0  0  0  0  0  0  0  0  0  0  0
    5.9109   -0.1651   -1.6113 H   0  0  0  0  0  0  0  0  0  0  0  0
    7.2108   -2.2918   -1.6470 H   0  0  0  0  0  0  0  0  0  0  0  0
    7.4501   -3.6251    0.4294 H   0  0  0  0  0  0  0  0  0  0  0  0
    6.4104   -2.8463    2.5394 H   0  0  0  0  0  0  0  0  0  0  0  0
    5.1045   -0.7111    2.5635 H   0  0  0  0  0  0  0  0  0  0  0  0
  1 19  1  0  0  0  0
  1 37  1  1  0  0  0
  2 39  1  0  0  0  0
  2  3  1  0  0  0  0
  2  1  1  0  0  0  0
  3  4  2  0  0  0  0
  4  5  1  0  0  0  0
  4 40  1  0  0  0  0
  5 41  1  0  0  0  0
  6  9  1  0  0  0  0
  6  5  2  0  0  0  0
  7  6  1  0  0  0  0
  8  7  2  0  0  0  0
  8  3  1  0  0  0  0
  9 10  1  0  0  0  0
 10 45  1  0  0  0  0
 10 44  1  0  0  0  0
 11 10  1  0  0  0  0
 11 47  1  0  0  0  0
 12 11  1  0  0  0  0
 12 13  1  0  0  0  0
 13 14  2  0  0  0  0
 15 13  1  0  0  0  0
 15 50  1  0  0  0  0
 16 51  1  6  0  0  0
 16 20  1  0  0  0  0
 16 15  1  0  0  0  0
 17 16  1  0  0  0  0
 17 19  1  0  0  0  0
 18 17  2  0  0  0  0
 19 52  1  0  0  0  0
 20 53  1  0  0  0  0
 20 54  1  0  0  0  0
 21 22  2  0  0  0  0
 21 20  1  0  0  0  0
 23 21  1  0  0  0  0
 24 57  1  6  0  0  0
 24  1  1  0  0  0  0
 24 26  1  0  0  0  0
 25 24  1  0  0  0  0
 26 60  1  0  0  0  0
 26 59  1  0  0  0  0
 27 26  1  0  0  0  0
 27 28  1  0  0  0  0
 28 29  2  0  0  0  0
 30 28  2  0  0  0  0
 31 28  1  0  0  0  0
 31 36  2  0  0  0  0
 32 31  1  0  0  0  0
 33 32  2  0  0  0  0
 33 34  1  0  0  0  0
 34 35  2  0  0  0  0
 35 36  1  0  0  0  0
 35 65  1  0  0  0  0
 36 66  1  0  0  0  0
 38  2  1  0  0  0  0
 42  7  1  0  0  0  0
 43  8  1  0  0  0  0
 46 11  1  0  0  0  0
 48 12  1  0  0  0  0
 49 12  1  0  0  0  0
 55 23  1  0  0  0  0
 56 23  1  0  0  0  0
 58 25  1  0  0  0  0
 61 27  1  0  0  0  0
 62 32  1  0  0  0  0
 63 33  1  0  0  0  0
 64 34  1  0  0  0  0
M  END
