omegapdb_2byh_12.log
 OpenBabel09261812563D

 40 42  0  0  0  0  0  0  0  0999 V2000
   -6.7980   -2.1515    0.7838 O   0  0  0  0  0  0  0  0  0  0  0  0
   -6.6697   -1.0992    0.1876 C   0  0  0  0  0  0  0  0  0  0  0  0
   -7.8638   -0.4244   -0.4570 C   0  0  0  0  0  0  0  0  0  0  0  0
   -5.3311   -0.4423    0.0741 C   0  0  0  0  0  0  0  0  0  0  0  0
   -4.2301   -1.0633    0.6674 C   0  0  0  0  0  0  0  0  0  0  0  0
   -2.9588   -0.5137    0.6030 C   0  0  0  0  0  0  0  0  0  0  0  0
   -2.7713    0.6981   -0.0739 C   0  0  0  0  0  0  0  0  0  0  0  0
   -3.8692    1.3299   -0.6718 C   0  0  0  0  0  0  0  0  0  0  0  0
   -5.1319    0.7658   -0.5985 C   0  0  0  0  0  0  0  0  0  0  0  0
   -1.5281    1.3402   -0.1918 N   0  0  0  0  0  0  0  0  0  0  0  0
   -0.2967    0.9276    0.2734 C   0  0  0  0  0  0  0  0  0  0  0  0
   -0.1197   -0.1374    0.8437 O   0  0  0  0  0  0  0  0  0  0  0  0
    0.7807    1.9145    0.0263 C   0  0  0  0  0  0  0  0  0  0  0  0
    0.6135    3.3138   -0.1107 C   0  0  0  0  0  0  0  0  0  0  0  0
    1.7649    3.9442   -0.2406 N   0  0  0  0  0  0  0  0  0  0  0  0
    2.6756    2.9655   -0.2000 N   0  0  0  0  0  0  0  0  0  0  0  0
    2.1664    1.7234   -0.0286 C   0  0  0  0  0  0  0  0  0  0  0  0
    3.0381    0.5320    0.0035 C   0  0  0  0  0  0  0  0  0  0  0  0
    2.5318   -0.7382   -0.2965 C   0  0  0  0  0  0  0  0  0  0  0  0
    3.3263   -1.8696   -0.2888 C   0  0  0  0  0  0  0  0  0  0  0  0
    2.6466   -3.4160   -0.6688 Cl  0  0  0  0  0  0  0  0  0  0  0  0
    4.6851   -1.7726    0.0267 C   0  0  0  0  0  0  0  0  0  0  0  0
    5.4300   -2.8981    0.0279 O   0  0  0  0  0  0  0  0  0  0  0  0
    5.2137   -0.5188    0.3185 C   0  0  0  0  0  0  0  0  0  0  0  0
    4.4071    0.6153    0.3034 C   0  0  0  0  0  0  0  0  0  0  0  0
    4.9471    1.8421    0.5747 O   0  0  0  0  0  0  0  0  0  0  0  0
   -8.0240    0.5729   -0.0323 H   0  0  0  0  0  0  0  0  0  0  0  0
   -7.7108   -0.3049   -1.5354 H   0  0  0  0  0  0  0  0  0  0  0  0
   -8.7482   -1.0387   -0.2818 H   0  0  0  0  0  0  0  0  0  0  0  0
   -4.3929   -2.0030    1.1873 H   0  0  0  0  0  0  0  0  0  0  0  0
   -2.1130   -1.0068    1.0620 H   0  0  0  0  0  0  0  0  0  0  0  0
   -3.7286    2.2734   -1.1965 H   0  0  0  0  0  0  0  0  0  0  0  0
   -5.9647    1.2791   -1.0725 H   0  0  0  0  0  0  0  0  0  0  0  0
   -1.5319    2.1816   -0.7489 H   0  0  0  0  0  0  0  0  0  0  0  0
   -0.3045    3.8892   -0.0744 H   0  0  0  0  0  0  0  0  0  0  0  0
    3.6581    3.1927   -0.2325 H   0  0  0  0  0  0  0  0  0  0  0  0
    1.4790   -0.8562   -0.5170 H   0  0  0  0  0  0  0  0  0  0  0  0
    6.3379   -2.6833    0.2767 H   0  0  0  0  0  0  0  0  0  0  0  0
    6.2732   -0.4226    0.5543 H   0  0  0  0  0  0  0  0  0  0  0  0
    5.8761    1.7400    0.8168 H   0  0  0  0  0  0  0  0  0  0  0  0
  2  1  2  0  0  0  0
  3 29  1  0  0  0  0
  3 27  1  0  0  0  0
  3  2  1  0  0  0  0
  4  2  1  0  0  0  0
  4  5  2  0  0  0  0
  5 30  1  0  0  0  0
  6  5  1  0  0  0  0
  6 31  1  0  0  0  0
  7  6  2  0  0  0  0
  8  9  2  0  0  0  0
  8  7  1  0  0  0  0
  9  4  1  0  0  0  0
 10  7  1  0  0  0  0
 10 11  1  0  0  0  0
 11 12  2  0  0  0  0
 13 11  1  0  0  0  0
 14 35  1  0  0  0  0
 14 13  1  0  0  0  0
 15 16  1  0  0  0  0
 15 14  2  0  0  0  0
 16 17  1  0  0  0  0
 17 18  1  0  0  0  0
 17 13  2  0  0  0  0
 18 25  2  0  0  0  0
 19 20  2  0  0  0  0
 19 18  1  0  0  0  0
 20 22  1  0  0  0  0
 21 20  1  0  0  0  0
 22 23  1  0  0  0  0
 22 24  2  0  0  0  0
 23 38  1  0  0  0  0
 24 39  1  0  0  0  0
 25 24  1  0  0  0  0
 25 26  1  0  0  0  0
 26 40  1  0  0  0  0
 28  3  1  0  0  0  0
 32  8  1  0  0  0  0
 33  9  1  0  0  0  0
 34 10  1  0  0  0  0
 36 16  1  0  0  0  0
 37 19  1  0  0  0  0
M  END
