omegapdb_1z1r_02.log
 OpenBabel09261812563D

 66 68  0  0  1  0  0  0  0  0999 V2000
   -0.1399   -1.5683   -0.6580 C   0  0  2  0  0  0  0  0  0  0  0  0
   -1.0225   -2.7773   -1.0067 C   0  0  0  0  0  0  0  0  0  0  0  0
   -2.4169   -2.5810   -0.4637 C   0  0  0  0  0  0  0  0  0  0  0  0
   -3.4734   -2.2318   -1.3002 C   0  0  0  0  0  0  0  0  0  0  0  0
   -4.7146   -1.8527   -0.7893 C   0  0  0  0  0  0  0  0  0  0  0  0
   -4.9013   -1.8048    0.5892 C   0  0  0  0  0  0  0  0  0  0  0  0
   -3.8707   -2.2086    1.4396 C   0  0  0  0  0  0  0  0  0  0  0  0
   -2.6487   -2.5914    0.9158 C   0  0  0  0  0  0  0  0  0  0  0  0
   -6.0656   -1.4234    1.1922 O   0  0  0  0  0  0  0  0  0  0  0  0
   -6.8187   -0.3629    0.6238 C   0  0  0  0  0  0  0  0  0  0  0  0
   -6.1735    1.0193    0.7710 C   0  0  0  0  0  0  0  0  0  0  0  0
   -5.2343    1.4794   -0.3523 C   0  0  0  0  0  0  0  0  0  0  0  0
   -3.7464    1.3863   -0.0219 C   0  0  0  0  0  0  0  0  0  0  0  0
   -3.3058    1.0764    1.0687 O   0  0  0  0  0  0  0  0  0  0  0  0
   -2.9222    1.7141   -1.0729 N   0  0  0  0  0  0  0  0  0  0  0  0
   -1.5062    1.9908   -0.8912 C   0  0  2  0  0  0  0  0  0  0  0  0
   -0.7464    0.7835   -0.3240 C   0  0  0  0  0  0  0  0  0  0  0  0
   -0.0454    0.8850    0.6792 O   0  0  0  0  0  0  0  0  0  0  0  0
   -0.7953   -0.3377   -1.0759 N   0  0  0  0  0  0  0  0  0  0  0  0
   -1.1510    3.2345   -0.0740 C   0  0  0  0  0  0  0  0  0  0  0  0
    0.3137    3.5547   -0.3812 C   0  0  0  0  0  0  0  0  0  0  0  0
    0.6690    3.6975   -1.5427 O   0  0  0  0  0  0  0  0  0  0  0  0
    1.1589    3.6663    0.6775 N   0  0  0  0  0  0  0  0  0  0  0  0
    1.2731   -1.6985   -1.2683 C   0  0  2  0  0  0  0  0  0  0  0  0
    1.9010   -2.8582   -0.7641 O   0  0  0  0  0  0  0  0  0  0  0  0
    2.1720   -0.4770   -1.0455 C   0  0  0  0  0  0  0  0  0  0  0  0
    2.4535   -0.3587    0.3926 N   0  0  0  0  0  0  0  0  0  0  0  0
    3.6610    0.7144    0.8238 S   0  0  0  0  0  0  0  0  0  0  0  0
    3.6455    1.9007   -0.0299 O   0  0  0  0  0  0  0  0  0  0  0  0
    3.5455    0.8612    2.2656 O   0  0  0  0  0  0  0  0  0  0  0  0
    5.1287   -0.2011    0.4274 C   0  0  0  0  0  0  0  0  0  0  0  0
    5.4992   -1.2647    1.2471 C   0  0  0  0  0  0  0  0  0  0  0  0
    6.6488   -1.9797    0.9384 C   0  0  0  0  0  0  0  0  0  0  0  0
    7.4121   -1.6273   -0.1743 C   0  0  0  0  0  0  0  0  0  0  0  0
    7.0345   -0.5572   -0.9790 C   0  0  0  0  0  0  0  0  0  0  0  0
    5.8842    0.1679   -0.6792 C   0  0  0  0  0  0  0  0  0  0  0  0
   -0.0397   -1.5193    0.4333 H   0  0  0  0  0  0  0  0  0  0  0  0
   -0.5386   -3.6709   -0.6014 H   0  0  0  0  0  0  0  0  0  0  0  0
   -1.0549   -2.9015   -2.0987 H   0  0  0  0  0  0  0  0  0  0  0  0
   -3.3302   -2.2481   -2.3807 H   0  0  0  0  0  0  0  0  0  0  0  0
   -5.5203   -1.5944   -1.4706 H   0  0  0  0  0  0  0  0  0  0  0  0
   -4.0428   -2.1762    2.5109 H   0  0  0  0  0  0  0  0  0  0  0  0
   -1.8436   -2.8684    1.5942 H   0  0  0  0  0  0  0  0  0  0  0  0
   -7.0713   -0.5720   -0.4258 H   0  0  0  0  0  0  0  0  0  0  0  0
   -7.7547   -0.3832    1.1882 H   0  0  0  0  0  0  0  0  0  0  0  0
   -6.9941    1.7419    0.8467 H   0  0  0  0  0  0  0  0  0  0  0  0
   -5.6327    1.0477    1.7231 H   0  0  0  0  0  0  0  0  0  0  0  0
   -5.4238    0.9329   -1.2850 H   0  0  0  0  0  0  0  0  0  0  0  0
   -5.4280    2.5363   -0.5812 H   0  0  0  0  0  0  0  0  0  0  0  0
   -3.3549    2.1270   -1.8866 H   0  0  0  0  0  0  0  0  0  0  0  0
   -1.0965    2.1595   -1.8939 H   0  0  0  0  0  0  0  0  0  0  0  0
   -1.5334   -0.3933   -1.7648 H   0  0  0  0  0  0  0  0  0  0  0  0
   -1.3457    3.0695    0.9876 H   0  0  0  0  0  0  0  0  0  0  0  0
   -1.7560    4.0765   -0.4268 H   0  0  0  0  0  0  0  0  0  0  0  0
    0.8924    3.1837    1.5245 H   0  0  0  0  0  0  0  0  0  0  0  0
    2.1423    3.5804    0.4400 H   0  0  0  0  0  0  0  0  0  0  0  0
    1.1654   -1.8385   -2.3524 H   0  0  0  0  0  0  0  0  0  0  0  0
    2.3280   -2.5831    0.0635 H   0  0  0  0  0  0  0  0  0  0  0  0
    3.1170   -0.6646   -1.5666 H   0  0  0  0  0  0  0  0  0  0  0  0
    1.7315    0.4396   -1.4548 H   0  0  0  0  0  0  0  0  0  0  0  0
    1.6065   -0.0315    0.8769 H   0  0  0  0  0  0  0  0  0  0  0  0
    4.8983   -1.5113    2.1181 H   0  0  0  0  0  0  0  0  0  0  0  0
    6.9545   -2.8101    1.5687 H   0  0  0  0  0  0  0  0  0  0  0  0
    8.3119   -2.1893   -0.4106 H   0  0  0  0  0  0  0  0  0  0  0  0
    7.6370   -0.2812   -1.8398 H   0  0  0  0  0  0  0  0  0  0  0  0
    5.5719    1.0172   -1.2797 H   0  0  0  0  0  0  0  0  0  0  0  0
  1 37  1  1  0  0  0
  2  1  1  0  0  0  0
  2 38  1  0  0  0  0
  2  3  1  0  0  0  0
  3  8  2  0  0  0  0
  4  5  2  0  0  0  0
  4  3  1  0  0  0  0
  5  6  1  0  0  0  0
  6  9  1  0  0  0  0
  6  7  2  0  0  0  0
  7 42  1  0  0  0  0
  8  7  1  0  0  0  0
  8 43  1  0  0  0  0
 10 11  1  0  0  0  0
 10 45  1  0  0  0  0
 10  9  1  0  0  0  0
 11 46  1  0  0  0  0
 11 47  1  0  0  0  0
 12 13  1  0  0  0  0
 12 11  1  0  0  0  0
 13 14  2  0  0  0  0
 15 16  1  0  0  0  0
 15 13  1  0  0  0  0
 16 51  1  6  0  0  0
 16 17  1  0  0  0  0
 16 20  1  0  0  0  0
 17 18  2  0  0  0  0
 19  1  1  0  0  0  0
 19 17  1  0  0  0  0
 20 53  1  0  0  0  0
 21 20  1  0  0  0  0
 21 23  1  0  0  0  0
 22 21  2  0  0  0  0
 23 55  1  0  0  0  0
 24 57  1  6  0  0  0
 24 26  1  0  0  0  0
 24 25  1  0  0  0  0
 24  1  1  0  0  0  0
 25 58  1  0  0  0  0
 26 27  1  0  0  0  0
 27 28  1  0  0  0  0
 27 61  1  0  0  0  0
 28 30  2  0  0  0  0
 29 28  2  0  0  0  0
 31 28  1  0  0  0  0
 31 32  2  0  0  0  0
 32 62  1  0  0  0  0
 33 32  1  0  0  0  0
 33 63  1  0  0  0  0
 34 33  2  0  0  0  0
 35 36  2  0  0  0  0
 35 34  1  0  0  0  0
 36 31  1  0  0  0  0
 39  2  1  0  0  0  0
 40  4  1  0  0  0  0
 41  5  1  0  0  0  0
 44 10  1  0  0  0  0
 48 12  1  0  0  0  0
 49 12  1  0  0  0  0
 50 15  1  0  0  0  0
 52 19  1  0  0  0  0
 54 20  1  0  0  0  0
 56 23  1  0  0  0  0
 59 26  1  0  0  0  0
 60 26  1  0  0  0  0
 64 34  1  0  0  0  0
 65 35  1  0  0  0  0
 66 36  1  0  0  0  0
M  END
