omegapdb_1xom_09.log
 OpenBabel09261812563D

 50 52  0  0  1  0  0  0  0  0999 V2000
   -5.9687    1.6595    0.6764 O   0  0  0  0  0  0  0  0  0  0  0  0
   -5.0698    1.4230   -0.3009 C   0  0  0  0  0  0  0  0  0  0  0  0
   -5.4003    1.2349   -1.4478 O   0  0  0  0  0  0  0  0  0  0  0  0
   -3.6550    1.4138    0.2377 C   0  0  1  0  0  0  0  0  0  0  0  0
   -3.5210    0.3306    1.3416 C   0  0  0  0  0  0  0  0  0  0  0  0
   -2.1107   -0.2514    1.3551 C   0  0  0  0  0  0  0  0  0  0  0  0
   -1.8163   -1.0422    0.0472 C   0  0  2  0  0  0  0  0  0  0  0  0
   -2.3882   -0.2627   -1.1858 C   0  0  0  0  0  0  0  0  0  0  0  0
   -2.6326    1.2178   -0.8918 C   0  0  0  0  0  0  0  0  0  0  0  0
   -2.5503   -2.3209    0.1422 C   0  0  0  0  0  0  0  0  0  0  0  0
   -3.1536   -3.3039    0.2398 N   0  0  0  0  0  0  0  0  0  0  0  0
   -0.3140   -1.3225   -0.0533 C   0  0  0  0  0  0  0  0  0  0  0  0
    0.2435   -2.5231    0.3656 C   0  0  0  0  0  0  0  0  0  0  0  0
    1.6231   -2.7352    0.3161 C   0  0  0  0  0  0  0  0  0  0  0  0
    2.4735   -1.7409   -0.1523 C   0  0  0  0  0  0  0  0  0  0  0  0
    3.8235   -1.8532   -0.2557 O   0  0  0  0  0  0  0  0  0  0  0  0
    4.4032   -3.0875    0.1114 C   0  0  0  0  0  0  0  0  0  0  0  0
    1.9201   -0.5129   -0.5668 C   0  0  0  0  0  0  0  0  0  0  0  0
    0.5509   -0.3216   -0.5135 C   0  0  0  0  0  0  0  0  0  0  0  0
    2.7142    0.4748   -1.0829 O   0  0  0  0  0  0  0  0  0  0  0  0
    3.5375    1.1568   -0.1373 C   0  0  0  0  0  0  0  0  0  0  0  0
    2.7748    2.1063    0.7873 C   0  0  0  0  0  0  0  0  0  0  0  0
    3.8851    3.0217    1.3146 C   0  0  0  0  0  0  0  0  0  0  0  0
    4.8748    3.1790    0.1300 C   0  0  0  0  0  0  0  0  0  0  0  0
    4.4984    2.0775   -0.8861 C   0  0  0  0  0  0  0  0  0  0  0  0
   -6.8428    1.6233    0.2537 H   0  0  0  0  0  0  0  0  0  0  0  0
   -3.4983    2.3969    0.6996 H   0  0  0  0  0  0  0  0  0  0  0  0
   -4.2364   -0.4843    1.1690 H   0  0  0  0  0  0  0  0  0  0  0  0
   -3.7759    0.7567    2.3159 H   0  0  0  0  0  0  0  0  0  0  0  0
   -1.9656   -0.9143    2.2146 H   0  0  0  0  0  0  0  0  0  0  0  0
   -1.3663    0.5488    1.4442 H   0  0  0  0  0  0  0  0  0  0  0  0
   -3.3428   -0.7057   -1.4894 H   0  0  0  0  0  0  0  0  0  0  0  0
   -1.7070   -0.3827   -2.0335 H   0  0  0  0  0  0  0  0  0  0  0  0
   -2.9984    1.7049   -1.8000 H   0  0  0  0  0  0  0  0  0  0  0  0
   -1.6958    1.7158   -0.6166 H   0  0  0  0  0  0  0  0  0  0  0  0
   -0.3957   -3.3260    0.7239 H   0  0  0  0  0  0  0  0  0  0  0  0
    2.0181   -3.6932    0.6374 H   0  0  0  0  0  0  0  0  0  0  0  0
    4.0188   -3.9082   -0.5071 H   0  0  0  0  0  0  0  0  0  0  0  0
    5.4753   -2.9782   -0.0581 H   0  0  0  0  0  0  0  0  0  0  0  0
    4.2237   -3.3166    1.1698 H   0  0  0  0  0  0  0  0  0  0  0  0
    0.1786    0.6391   -0.8595 H   0  0  0  0  0  0  0  0  0  0  0  0
    4.0938    0.4189    0.4554 H   0  0  0  0  0  0  0  0  0  0  0  0
    2.0578    2.6734    0.1781 H   0  0  0  0  0  0  0  0  0  0  0  0
    2.2184    1.5923    1.5782 H   0  0  0  0  0  0  0  0  0  0  0  0
    4.3867    2.5404    2.1628 H   0  0  0  0  0  0  0  0  0  0  0  0
    3.5020    3.9809    1.6760 H   0  0  0  0  0  0  0  0  0  0  0  0
    4.7913    4.1704   -0.3263 H   0  0  0  0  0  0  0  0  0  0  0  0
    5.9101    3.0777    0.4704 H   0  0  0  0  0  0  0  0  0  0  0  0
    3.9516    2.4979   -1.7380 H   0  0  0  0  0  0  0  0  0  0  0  0
    5.3615    1.5380   -1.2860 H   0  0  0  0  0  0  0  0  0  0  0  0
  2  4  1  0  0  0  0
  2  1  1  0  0  0  0
  3  2  2  0  0  0  0
  4 27  1  1  0  0  0
  4  5  1  0  0  0  0
  5  6  1  0  0  0  0
  5 29  1  0  0  0  0
  6 31  1  0  0  0  0
  6 30  1  0  0  0  0
  7 10  1  1  0  0  0
  7  6  1  0  0  0  0
  8  9  1  0  0  0  0
  8  7  1  0  0  0  0
  9 35  1  0  0  0  0
  9  4  1  0  0  0  0
 10 11  3  0  0  0  0
 12  7  1  0  0  0  0
 12 13  2  0  0  0  0
 13 36  1  0  0  0  0
 14 13  1  0  0  0  0
 14 37  1  0  0  0  0
 15 14  2  0  0  0  0
 16 15  1  0  0  0  0
 16 17  1  0  0  0  0
 17 40  1  0  0  0  0
 18 19  2  0  0  0  0
 18 15  1  0  0  0  0
 19 12  1  0  0  0  0
 20 18  1  0  0  0  0
 20 21  1  0  0  0  0
 21 42  1  0  0  0  0
 21 22  1  0  0  0  0
 22 23  1  0  0  0  0
 22 44  1  0  0  0  0
 23 46  1  0  0  0  0
 23 45  1  0  0  0  0
 24 48  1  0  0  0  0
 24 23  1  0  0  0  0
 25 21  1  0  0  0  0
 25 24  1  0  0  0  0
 26  1  1  0  0  0  0
 28  5  1  0  0  0  0
 32  8  1  0  0  0  0
 33  8  1  0  0  0  0
 34  9  1  0  0  0  0
 38 17  1  0  0  0  0
 39 17  1  0  0  0  0
 41 19  1  0  0  0  0
 43 22  1  0  0  0  0
 47 24  1  0  0  0  0
 49 25  1  0  0  0  0
 50 25  1  0  0  0  0
M  END
