omegapdb_1z1r_21.log
 OpenBabel09261812563D

 66 68  0  0  1  0  0  0  0  0999 V2000
   -0.3720   -2.0483    0.1472 C   0  0  2  0  0  0  0  0  0  0  0  0
   -1.4165   -3.1782    0.1072 C   0  0  0  0  0  0  0  0  0  0  0  0
   -2.8102   -2.6447    0.3490 C   0  0  0  0  0  0  0  0  0  0  0  0
   -3.1029   -1.8976    1.4953 C   0  0  0  0  0  0  0  0  0  0  0  0
   -4.3149   -1.2372    1.6327 C   0  0  0  0  0  0  0  0  0  0  0  0
   -5.2637   -1.3091    0.6099 C   0  0  0  0  0  0  0  0  0  0  0  0
   -5.0256   -2.1199   -0.4951 C   0  0  0  0  0  0  0  0  0  0  0  0
   -3.8022   -2.7733   -0.6226 C   0  0  0  0  0  0  0  0  0  0  0  0
   -6.4253   -0.5911    0.6586 O   0  0  0  0  0  0  0  0  0  0  0  0
   -6.2649    0.8341    0.7033 C   0  0  0  0  0  0  0  0  0  0  0  0
   -5.7875    1.4285   -0.6219 C   0  0  0  0  0  0  0  0  0  0  0  0
   -4.2810    1.3676   -0.8928 C   0  0  0  0  0  0  0  0  0  0  0  0
   -3.4976    2.3221    0.0056 C   0  0  0  0  0  0  0  0  0  0  0  0
   -4.0627    3.0598    0.7988 O   0  0  0  0  0  0  0  0  0  0  0  0
   -2.1407    2.3582   -0.1410 N   0  0  0  0  0  0  0  0  0  0  0  0
   -1.3079    1.5016   -0.9505 C   0  0  2  0  0  0  0  0  0  0  0  0
   -0.6798    0.3770   -0.1131 C   0  0  0  0  0  0  0  0  0  0  0  0
   -0.0126    0.6222    0.8815 O   0  0  0  0  0  0  0  0  0  0  0  0
   -0.8331   -0.8860   -0.6018 N   0  0  0  0  0  0  0  0  0  0  0  0
   -0.1656    2.2890   -1.6206 C   0  0  0  0  0  0  0  0  0  0  0  0
    0.6991    3.0795   -0.6416 C   0  0  0  0  0  0  0  0  0  0  0  0
    0.2105    3.8555    0.1690 O   0  0  0  0  0  0  0  0  0  0  0  0
    2.0357    2.9220   -0.7841 N   0  0  0  0  0  0  0  0  0  0  0  0
    0.9993   -2.5020   -0.3816 C   0  0  2  0  0  0  0  0  0  0  0  0
    1.4443   -3.6962    0.2420 O   0  0  0  0  0  0  0  0  0  0  0  0
    2.0345   -1.3967   -0.2220 C   0  0  0  0  0  0  0  0  0  0  0  0
    3.2507   -1.7276   -0.9486 N   0  0  0  0  0  0  0  0  0  0  0  0
    4.3193   -0.5090   -1.2725 S   0  0  0  0  0  0  0  0  0  0  0  0
    3.5316    0.5686   -1.8641 O   0  0  0  0  0  0  0  0  0  0  0  0
    5.4286   -1.1157   -1.9815 O   0  0  0  0  0  0  0  0  0  0  0  0
    4.9256    0.0832    0.2933 C   0  0  0  0  0  0  0  0  0  0  0  0
    4.0999    0.8513    1.1157 C   0  0  0  0  0  0  0  0  0  0  0  0
    4.5888    1.2809    2.3446 C   0  0  0  0  0  0  0  0  0  0  0  0
    5.8853    0.9529    2.7358 C   0  0  0  0  0  0  0  0  0  0  0  0
    6.7000    0.1913    1.9030 C   0  0  0  0  0  0  0  0  0  0  0  0
    6.2213   -0.2519    0.6742 C   0  0  0  0  0  0  0  0  0  0  0  0
   -0.2464   -1.7044    1.1826 H   0  0  0  0  0  0  0  0  0  0  0  0
   -1.3752   -3.6781   -0.8698 H   0  0  0  0  0  0  0  0  0  0  0  0
   -1.1307   -3.9345    0.8455 H   0  0  0  0  0  0  0  0  0  0  0  0
   -2.3565   -1.7968    2.2815 H   0  0  0  0  0  0  0  0  0  0  0  0
   -4.5186   -0.6377    2.5156 H   0  0  0  0  0  0  0  0  0  0  0  0
   -5.7859   -2.1865   -1.2681 H   0  0  0  0  0  0  0  0  0  0  0  0
   -3.6065   -3.3690   -1.5132 H   0  0  0  0  0  0  0  0  0  0  0  0
   -7.2653    1.2078    0.9344 H   0  0  0  0  0  0  0  0  0  0  0  0
   -5.5966    1.1286    1.5199 H   0  0  0  0  0  0  0  0  0  0  0  0
   -6.0871    2.4815   -0.6361 H   0  0  0  0  0  0  0  0  0  0  0  0
   -6.3254    0.9222   -1.4327 H   0  0  0  0  0  0  0  0  0  0  0  0
   -3.8937    0.3484   -0.7837 H   0  0  0  0  0  0  0  0  0  0  0  0
   -4.0956    1.6555   -1.9372 H   0  0  0  0  0  0  0  0  0  0  0  0
   -1.6431    3.0440    0.4221 H   0  0  0  0  0  0  0  0  0  0  0  0
   -1.9143    1.0677   -1.7526 H   0  0  0  0  0  0  0  0  0  0  0  0
   -1.5309   -1.0410   -1.3160 H   0  0  0  0  0  0  0  0  0  0  0  0
   -0.6098    3.0192   -2.3061 H   0  0  0  0  0  0  0  0  0  0  0  0
    0.4440    1.5995   -2.2172 H   0  0  0  0  0  0  0  0  0  0  0  0
    2.4693    2.2146   -1.3663 H   0  0  0  0  0  0  0  0  0  0  0  0
    2.6273    3.4613   -0.1691 H   0  0  0  0  0  0  0  0  0  0  0  0
    0.9073   -2.7484   -1.4456 H   0  0  0  0  0  0  0  0  0  0  0  0
    1.5040   -3.5255    1.1931 H   0  0  0  0  0  0  0  0  0  0  0  0
    2.2166   -1.2256    0.8517 H   0  0  0  0  0  0  0  0  0  0  0  0
    1.6553   -0.4645   -0.6402 H   0  0  0  0  0  0  0  0  0  0  0  0
    3.7112   -2.5892   -0.6720 H   0  0  0  0  0  0  0  0  0  0  0  0
    3.0921    1.1188    0.8054 H   0  0  0  0  0  0  0  0  0  0  0  0
    3.9549    1.8782    2.9939 H   0  0  0  0  0  0  0  0  0  0  0  0
    6.2637    1.2981    3.6944 H   0  0  0  0  0  0  0  0  0  0  0  0
    7.7136   -0.0550    2.2067 H   0  0  0  0  0  0  0  0  0  0  0  0
    6.8411   -0.8381    0.0022 H   0  0  0  0  0  0  0  0  0  0  0  0
  1 37  1  1  0  0  0
  2  1  1  0  0  0  0
  2  3  1  0  0  0  0
  2 39  1  0  0  0  0
  3  4  2  0  0  0  0
  4  5  1  0  0  0  0
  4 40  1  0  0  0  0
  5 41  1  0  0  0  0
  6  9  1  0  0  0  0
  6  5  2  0  0  0  0
  7  6  1  0  0  0  0
  8  7  2  0  0  0  0
  8  3  1  0  0  0  0
  9 10  1  0  0  0  0
 10 44  1  0  0  0  0
 10 45  1  0  0  0  0
 11 10  1  0  0  0  0
 12 48  1  0  0  0  0
 12 11  1  0  0  0  0
 12 13  1  0  0  0  0
 13 14  2  0  0  0  0
 15 13  1  0  0  0  0
 15 50  1  0  0  0  0
 16 51  1  6  0  0  0
 16 15  1  0  0  0  0
 16 17  1  0  0  0  0
 17 18  2  0  0  0  0
 19 17  1  0  0  0  0
 19  1  1  0  0  0  0
 20 16  1  0  0  0  0
 20 21  1  0  0  0  0
 21 22  2  0  0  0  0
 23 21  1  0  0  0  0
 23 56  1  0  0  0  0
 24 57  1  6  0  0  0
 24 26  1  0  0  0  0
 24  1  1  0  0  0  0
 24 25  1  0  0  0  0
 25 58  1  0  0  0  0
 26 59  1  0  0  0  0
 27 61  1  0  0  0  0
 27 26  1  0  0  0  0
 28 27  1  0  0  0  0
 28 31  1  0  0  0  0
 29 28  2  0  0  0  0
 30 28  2  0  0  0  0
 31 36  2  0  0  0  0
 31 32  1  0  0  0  0
 32 33  2  0  0  0  0
 33 34  1  0  0  0  0
 33 63  1  0  0  0  0
 34 64  1  0  0  0  0
 35 65  1  0  0  0  0
 35 34  2  0  0  0  0
 36 35  1  0  0  0  0
 38  2  1  0  0  0  0
 42  7  1  0  0  0  0
 43  8  1  0  0  0  0
 46 11  1  0  0  0  0
 47 11  1  0  0  0  0
 49 12  1  0  0  0  0
 52 19  1  0  0  0  0
 53 20  1  0  0  0  0
 54 20  1  0  0  0  0
 55 23  1  0  0  0  0
 60 26  1  0  0  0  0
 62 32  1  0  0  0  0
 66 36  1  0  0  0  0
M  END
