omegapdb_1qxw_03.log
 OpenBabel09261812563D

 36 36  0  0  1  0  0  0  0  0999 V2000
   -3.6270   -2.1339    0.1231 C   0  0  0  0  0  0  0  0  0  0  0  0
   -4.7414   -1.1259    0.1523 C   0  0  0  0  0  0  0  0  0  0  0  0
   -3.3213   -0.6776    0.3245 C   0  0  0  0  0  0  0  0  0  0  0  0
   -2.7273    0.0154   -0.7828 N   0  0  0  0  0  0  0  0  0  0  0  0
   -1.2801   -0.0571   -0.8879 C   0  0  0  0  0  0  0  0  0  0  0  0
   -0.5280    0.9920   -0.0613 C   0  0  0  0  0  0  0  0  0  0  0  0
    0.9895    1.0333   -0.3311 C   0  0  1  0  0  0  0  0  0  0  0  0
    1.4683    2.2582    0.3193 N   0  0  0  0  0  0  0  0  0  0  0  0
    1.7168   -0.2459    0.0919 C   0  0  0  0  0  0  0  0  0  0  0  0
    3.2165   -0.2180   -0.2000 C   0  0  0  0  0  0  0  0  0  0  0  0
    3.9245   -1.5159    0.1859 C   0  0  0  0  0  0  0  0  0  0  0  0
    5.4225   -1.4813   -0.1051 C   0  0  0  0  0  0  0  0  0  0  0  0
   -0.6646    0.7610    1.3385 O   0  0  0  0  0  0  0  0  0  0  0  0
   -1.0833    2.2353   -0.3847 O   0  0  0  0  0  0  0  0  0  0  0  0
   -3.5137   -2.8077    0.9675 H   0  0  0  0  0  0  0  0  0  0  0  0
   -3.3633   -2.5540   -0.8430 H   0  0  0  0  0  0  0  0  0  0  0  0
   -5.3999   -1.1030    1.0160 H   0  0  0  0  0  0  0  0  0  0  0  0
   -5.2131   -0.8804   -0.7944 H   0  0  0  0  0  0  0  0  0  0  0  0
   -3.0247   -0.4017    1.3403 H   0  0  0  0  0  0  0  0  0  0  0  0
   -3.0255    0.9852   -0.8211 H   0  0  0  0  0  0  0  0  0  0  0  0
   -0.9658   -1.0607   -0.5843 H   0  0  0  0  0  0  0  0  0  0  0  0
   -0.9942    0.0839   -1.9394 H   0  0  0  0  0  0  0  0  0  0  0  0
    1.1134    1.1812   -1.4125 H   0  0  0  0  0  0  0  0  0  0  0  0
    1.5016    2.1065    1.3246 H   0  0  0  0  0  0  0  0  0  0  0  0
    2.4028    2.4994    0.0075 H   0  0  0  0  0  0  0  0  0  0  0  0
    1.5428   -0.4106    1.1636 H   0  0  0  0  0  0  0  0  0  0  0  0
    1.2717   -1.1042   -0.4297 H   0  0  0  0  0  0  0  0  0  0  0  0
    3.6872    0.6155    0.3414 H   0  0  0  0  0  0  0  0  0  0  0  0
    3.3796   -0.0210   -1.2707 H   0  0  0  0  0  0  0  0  0  0  0  0
    3.4624   -2.3539   -0.3535 H   0  0  0  0  0  0  0  0  0  0  0  0
    3.7588   -1.7120    1.2540 H   0  0  0  0  0  0  0  0  0  0  0  0
    5.9125   -0.6706    0.4474 H   0  0  0  0  0  0  0  0  0  0  0  0
    5.9087   -2.4204    0.1788 H   0  0  0  0  0  0  0  0  0  0  0  0
    5.6118   -1.3159   -1.1724 H   0  0  0  0  0  0  0  0  0  0  0  0
   -1.5069    1.1683    1.5812 H   0  0  0  0  0  0  0  0  0  0  0  0
   -0.3821    2.8733   -0.1410 H   0  0  0  0  0  0  0  0  0  0  0  0
  1  2  1  0  0  0  0
  1  3  1  0  0  0  0
  1 15  1  0  0  0  0
  2  3  1  0  0  0  0
  2 17  1  0  0  0  0
  3 19  1  0  0  0  0
  4  3  1  0  0  0  0
  5  4  1  0  0  0  0
  5 21  1  0  0  0  0
  5  6  1  0  0  0  0
  6 13  1  0  0  0  0
  7 23  1  6  0  0  0
  7  6  1  0  0  0  0
  7  9  1  0  0  0  0
  7  8  1  0  0  0  0
  8 24  1  0  0  0  0
  9 26  1  0  0  0  0
 10  9  1  0  0  0  0
 10 11  1  0  0  0  0
 10 28  1  0  0  0  0
 11 31  1  0  0  0  0
 12 33  1  0  0  0  0
 12 11  1  0  0  0  0
 12 32  1  0  0  0  0
 13 35  1  0  0  0  0
 14 36  1  0  0  0  0
 14  6  1  0  0  0  0
 16  1  1  0  0  0  0
 18  2  1  0  0  0  0
 20  4  1  0  0  0  0
 22  5  1  0  0  0  0
 25  8  1  0  0  0  0
 27  9  1  0  0  0  0
 29 10  1  0  0  0  0
 30 11  1  0  0  0  0
 34 12  1  0  0  0  0
M  END
