omegapdb_1qxw_27.log
 OpenBabel09261812563D

 36 36  0  0  1  0  0  0  0  0999 V2000
    3.6357   -1.2819    0.0626 C   0  0  0  0  0  0  0  0  0  0  0  0
    3.6982    0.2001    0.3406 C   0  0  0  0  0  0  0  0  0  0  0  0
    2.6151   -0.3411   -0.5316 C   0  0  0  0  0  0  0  0  0  0  0  0
    1.2547   -0.3046   -0.0755 N   0  0  0  0  0  0  0  0  0  0  0  0
    0.4739   -1.4532   -0.4900 C   0  0  0  0  0  0  0  0  0  0  0  0
   -0.9566   -1.4224    0.0529 C   0  0  0  0  0  0  0  0  0  0  0  0
   -1.9314   -0.4527   -0.6648 C   0  0  1  0  0  0  0  0  0  0  0  0
   -3.2623   -0.4735   -0.0681 N   0  0  0  0  0  0  0  0  0  0  0  0
   -1.4496    0.9917   -0.8386 C   0  0  0  0  0  0  0  0  0  0  0  0
   -1.3612    1.8360    0.4366 C   0  0  0  0  0  0  0  0  0  0  0  0
   -0.7395    3.2158    0.1928 C   0  0  0  0  0  0  0  0  0  0  0  0
    0.7665    3.1762   -0.0671 C   0  0  0  0  0  0  0  0  0  0  0  0
   -0.8420   -1.1751    1.4371 O   0  0  0  0  0  0  0  0  0  0  0  0
   -1.5522   -2.6934   -0.1457 O   0  0  0  0  0  0  0  0  0  0  0  0
    4.3903   -1.7205   -0.5847 H   0  0  0  0  0  0  0  0  0  0  0  0
    3.3080   -1.9276    0.8745 H   0  0  0  0  0  0  0  0  0  0  0  0
    4.4905    0.7851   -0.1171 H   0  0  0  0  0  0  0  0  0  0  0  0
    3.4196    0.5378    1.3367 H   0  0  0  0  0  0  0  0  0  0  0  0
    2.7057   -0.1441   -1.5994 H   0  0  0  0  0  0  0  0  0  0  0  0
    1.2116   -0.2258    0.9361 H   0  0  0  0  0  0  0  0  0  0  0  0
    0.9297   -2.4095   -0.1685 H   0  0  0  0  0  0  0  0  0  0  0  0
    0.4248   -1.4845   -1.5861 H   0  0  0  0  0  0  0  0  0  0  0  0
   -2.0363   -0.8810   -1.6703 H   0  0  0  0  0  0  0  0  0  0  0  0
   -3.5582   -1.4290    0.1052 H   0  0  0  0  0  0  0  0  0  0  0  0
   -3.3077    0.0555    0.7969 H   0  0  0  0  0  0  0  0  0  0  0  0
   -0.4710    0.9727   -1.3255 H   0  0  0  0  0  0  0  0  0  0  0  0
   -2.1536    1.4761   -1.5279 H   0  0  0  0  0  0  0  0  0  0  0  0
   -0.7751    1.3070    1.1977 H   0  0  0  0  0  0  0  0  0  0  0  0
   -2.3699    1.9805    0.8501 H   0  0  0  0  0  0  0  0  0  0  0  0
   -0.9326    3.8535    1.0653 H   0  0  0  0  0  0  0  0  0  0  0  0
   -1.2490    3.6963   -0.6545 H   0  0  0  0  0  0  0  0  0  0  0  0
    1.2973    2.7433    0.7894 H   0  0  0  0  0  0  0  0  0  0  0  0
    1.0161    2.5621   -0.9384 H   0  0  0  0  0  0  0  0  0  0  0  0
    1.1628    4.1837   -0.2361 H   0  0  0  0  0  0  0  0  0  0  0  0
   -1.7436   -1.0337    1.7616 H   0  0  0  0  0  0  0  0  0  0  0  0
   -1.0594   -3.3139    0.4092 H   0  0  0  0  0  0  0  0  0  0  0  0
  1  2  1  0  0  0  0
  1 16  1  0  0  0  0
  2 18  1  0  0  0  0
  3  4  1  0  0  0  0
  3  1  1  0  0  0  0
  3  2  1  0  0  0  0
  4 20  1  0  0  0  0
  5 21  1  0  0  0  0
  5  4  1  0  0  0  0
  5  6  1  0  0  0  0
  6 13  1  0  0  0  0
  7 23  1  6  0  0  0
  7  8  1  0  0  0  0
  7  6  1  0  0  0  0
  8 24  1  0  0  0  0
  8 25  1  0  0  0  0
  9  7  1  0  0  0  0
  9 10  1  0  0  0  0
 10 29  1  0  0  0  0
 10 28  1  0  0  0  0
 11 10  1  0  0  0  0
 11 30  1  0  0  0  0
 12 11  1  0  0  0  0
 12 32  1  0  0  0  0
 13 35  1  0  0  0  0
 14  6  1  0  0  0  0
 14 36  1  0  0  0  0
 15  1  1  0  0  0  0
 17  2  1  0  0  0  0
 19  3  1  0  0  0  0
 22  5  1  0  0  0  0
 26  9  1  0  0  0  0
 27  9  1  0  0  0  0
 31 11  1  0  0  0  0
 33 12  1  0  0  0  0
 34 12  1  0  0  0  0
M  END
