omegapdb_1qxw_11.log
 OpenBabel09261812563D

 36 36  0  0  1  0  0  0  0  0999 V2000
   -3.6936   -2.0792   -0.0579 C   0  0  0  0  0  0  0  0  0  0  0  0
   -4.7402   -1.0488    0.2861 C   0  0  0  0  0  0  0  0  0  0  0  0
   -3.5572   -0.6563   -0.5358 C   0  0  0  0  0  0  0  0  0  0  0  0
   -2.5724    0.2371    0.0160 N   0  0  0  0  0  0  0  0  0  0  0  0
   -1.2036   -0.0739   -0.3834 C   0  0  0  0  0  0  0  0  0  0  0  0
   -0.3142    1.0792    0.0826 C   0  0  0  0  0  0  0  0  0  0  0  0
    1.1200    1.0662   -0.4833 C   0  0  1  0  0  0  0  0  0  0  0  0
    1.8941    2.2198   -0.0343 N   0  0  0  0  0  0  0  0  0  0  0  0
    1.8705   -0.2238   -0.1536 C   0  0  0  0  0  0  0  0  0  0  0  0
    3.2800   -0.2686   -0.7454 C   0  0  0  0  0  0  0  0  0  0  0  0
    3.9932   -1.6053   -0.5269 C   0  0  0  0  0  0  0  0  0  0  0  0
    4.2583   -1.9312    0.9425 C   0  0  0  0  0  0  0  0  0  0  0  0
   -0.8888    2.2962   -0.3074 O   0  0  0  0  0  0  0  0  0  0  0  0
   -0.3077    0.9925    1.5066 O   0  0  0  0  0  0  0  0  0  0  0  0
   -3.9439   -2.8534   -0.7778 H   0  0  0  0  0  0  0  0  0  0  0  0
   -3.0317   -2.4043    0.7415 H   0  0  0  0  0  0  0  0  0  0  0  0
   -5.7106   -1.1073   -0.1975 H   0  0  0  0  0  0  0  0  0  0  0  0
   -4.7795   -0.6949    1.3140 H   0  0  0  0  0  0  0  0  0  0  0  0
   -3.7326   -0.4784   -1.5955 H   0  0  0  0  0  0  0  0  0  0  0  0
   -2.6108    0.2261    1.0326 H   0  0  0  0  0  0  0  0  0  0  0  0
   -1.1646   -0.1380   -1.4775 H   0  0  0  0  0  0  0  0  0  0  0  0
   -0.8435   -1.0274    0.0283 H   0  0  0  0  0  0  0  0  0  0  0  0
    1.0197    1.1542   -1.5742 H   0  0  0  0  0  0  0  0  0  0  0  0
    2.0378    2.1559    0.9716 H   0  0  0  0  0  0  0  0  0  0  0  0
    1.3587    3.0661   -0.2104 H   0  0  0  0  0  0  0  0  0  0  0  0
    1.3008   -1.0836   -0.5330 H   0  0  0  0  0  0  0  0  0  0  0  0
    1.9008   -0.3336    0.9392 H   0  0  0  0  0  0  0  0  0  0  0  0
    3.8771    0.5482   -0.3235 H   0  0  0  0  0  0  0  0  0  0  0  0
    3.2144   -0.0675   -1.8238 H   0  0  0  0  0  0  0  0  0  0  0  0
    3.4016   -2.4139   -0.9797 H   0  0  0  0  0  0  0  0  0  0  0  0
    4.9486   -1.5872   -1.0670 H   0  0  0  0  0  0  0  0  0  0  0  0
    4.8297   -1.1277    1.4232 H   0  0  0  0  0  0  0  0  0  0  0  0
    3.3262   -2.0574    1.5046 H   0  0  0  0  0  0  0  0  0  0  0  0
    4.8324   -2.8583    1.0458 H   0  0  0  0  0  0  0  0  0  0  0  0
   -1.8514    2.1328   -0.2704 H   0  0  0  0  0  0  0  0  0  0  0  0
   -0.1381    1.8931    1.8142 H   0  0  0  0  0  0  0  0  0  0  0  0
  1  2  1  0  0  0  0
  1 16  1  0  0  0  0
  2 18  1  0  0  0  0
  3  1  1  0  0  0  0
  3  4  1  0  0  0  0
  3  2  1  0  0  0  0
  4 20  1  0  0  0  0
  5  4  1  0  0  0  0
  5 22  1  0  0  0  0
  5  6  1  0  0  0  0
  6 14  1  0  0  0  0
  7 23  1  6  0  0  0
  7  9  1  0  0  0  0
  7  8  1  0  0  0  0
  7  6  1  0  0  0  0
  8 24  1  0  0  0  0
  9 27  1  0  0  0  0
 10 11  1  0  0  0  0
 10 28  1  0  0  0  0
 10  9  1  0  0  0  0
 11 12  1  0  0  0  0
 12 34  1  0  0  0  0
 12 32  1  0  0  0  0
 12 33  1  0  0  0  0
 13 35  1  0  0  0  0
 13  6  1  0  0  0  0
 14 36  1  0  0  0  0
 15  1  1  0  0  0  0
 17  2  1  0  0  0  0
 19  3  1  0  0  0  0
 21  5  1  0  0  0  0
 25  8  1  0  0  0  0
 26  9  1  0  0  0  0
 29 10  1  0  0  0  0
 30 11  1  0  0  0  0
 31 11  1  0  0  0  0
M  END
