omegapdb_1xom_07.log
 OpenBabel09261812563D

 50 52  0  0  1  0  0  0  0  0999 V2000
   -5.9457   -1.4762    0.1952 O   0  0  0  0  0  0  0  0  0  0  0  0
   -5.8826   -0.2583   -0.3831 C   0  0  0  0  0  0  0  0  0  0  0  0
   -6.8566    0.2860   -0.8451 O   0  0  0  0  0  0  0  0  0  0  0  0
   -4.4799    0.3043   -0.3753 C   0  0  1  0  0  0  0  0  0  0  0  0
   -3.9485    0.4751    1.0563 C   0  0  0  0  0  0  0  0  0  0  0  0
   -2.5412    1.0729    1.0411 C   0  0  0  0  0  0  0  0  0  0  0  0
   -1.5444    0.2100    0.2365 C   0  0  2  0  0  0  0  0  0  0  0  0
   -2.1077    0.0032   -1.1942 C   0  0  0  0  0  0  0  0  0  0  0  0
   -3.5231   -0.5747   -1.1962 C   0  0  0  0  0  0  0  0  0  0  0  0
   -1.4517   -1.1127    0.8953 C   0  0  0  0  0  0  0  0  0  0  0  0
   -1.3955   -2.1545    1.3965 N   0  0  0  0  0  0  0  0  0  0  0  0
   -0.1351    0.8073    0.1607 C   0  0  0  0  0  0  0  0  0  0  0  0
    0.1380    2.1356    0.4542 C   0  0  0  0  0  0  0  0  0  0  0  0
    1.4313    2.6505    0.3251 C   0  0  0  0  0  0  0  0  0  0  0  0
    2.4762    1.8395   -0.0995 C   0  0  0  0  0  0  0  0  0  0  0  0
    3.7600    2.2490   -0.2684 O   0  0  0  0  0  0  0  0  0  0  0  0
    4.0503    3.6057   -0.0063 C   0  0  0  0  0  0  0  0  0  0  0  0
    2.2138    0.4834   -0.3875 C   0  0  0  0  0  0  0  0  0  0  0  0
    0.9268   -0.0056   -0.2582 C   0  0  0  0  0  0  0  0  0  0  0  0
    3.1981   -0.3412   -0.8482 O   0  0  0  0  0  0  0  0  0  0  0  0
    4.2122   -0.7203    0.1045 C   0  0  0  0  0  0  0  0  0  0  0  0
    3.6423   -1.6549    1.1706 C   0  0  0  0  0  0  0  0  0  0  0  0
    3.4942   -3.0170    0.4606 C   0  0  0  0  0  0  0  0  0  0  0  0
    4.4393   -2.9596   -0.7689 C   0  0  0  0  0  0  0  0  0  0  0  0
    5.1796   -1.6144   -0.6583 C   0  0  0  0  0  0  0  0  0  0  0  0
   -6.8752   -1.7532    0.1396 H   0  0  0  0  0  0  0  0  0  0  0  0
   -4.5606    1.2899   -0.8497 H   0  0  0  0  0  0  0  0  0  0  0  0
   -3.9427   -0.4986    1.5609 H   0  0  0  0  0  0  0  0  0  0  0  0
   -4.6140    1.1312    1.6293 H   0  0  0  0  0  0  0  0  0  0  0  0
   -2.5851    2.0621    0.5689 H   0  0  0  0  0  0  0  0  0  0  0  0
   -2.1702    1.2136    2.0624 H   0  0  0  0  0  0  0  0  0  0  0  0
   -2.0959    0.9855   -1.6843 H   0  0  0  0  0  0  0  0  0  0  0  0
   -1.4317   -0.6440   -1.7634 H   0  0  0  0  0  0  0  0  0  0  0  0
   -3.5137   -1.5873   -0.7744 H   0  0  0  0  0  0  0  0  0  0  0  0
   -3.8809   -0.6585   -2.2291 H   0  0  0  0  0  0  0  0  0  0  0  0
   -0.6445    2.8064    0.7943 H   0  0  0  0  0  0  0  0  0  0  0  0
    1.6047    3.6959    0.5583 H   0  0  0  0  0  0  0  0  0  0  0  0
    3.4723    4.2706   -0.6605 H   0  0  0  0  0  0  0  0  0  0  0  0
    3.8489    3.8636    1.0416 H   0  0  0  0  0  0  0  0  0  0  0  0
    5.1141    3.7318   -0.2116 H   0  0  0  0  0  0  0  0  0  0  0  0
    0.7700   -1.0588   -0.4823 H   0  0  0  0  0  0  0  0  0  0  0  0
    4.6758    0.1843    0.5120 H   0  0  0  0  0  0  0  0  0  0  0  0
    2.7044   -1.2848    1.5978 H   0  0  0  0  0  0  0  0  0  0  0  0
    4.3681   -1.7200    1.9907 H   0  0  0  0  0  0  0  0  0  0  0  0
    3.7456   -3.8420    1.1343 H   0  0  0  0  0  0  0  0  0  0  0  0
    2.4583   -3.1757    0.1441 H   0  0  0  0  0  0  0  0  0  0  0  0
    5.1342   -3.8047   -0.8003 H   0  0  0  0  0  0  0  0  0  0  0  0
    3.8575   -2.9849   -1.6951 H   0  0  0  0  0  0  0  0  0  0  0  0
    6.0967   -1.7207   -0.0659 H   0  0  0  0  0  0  0  0  0  0  0  0
    5.4496   -1.1819   -1.6260 H   0  0  0  0  0  0  0  0  0  0  0  0
  2  4  1  0  0  0  0
  2  1  1  0  0  0  0
  3  2  2  0  0  0  0
  4 27  1  6  0  0  0
  4  5  1  0  0  0  0
  5 28  1  0  0  0  0
  5 29  1  0  0  0  0
  6  5  1  0  0  0  0
  6 31  1  0  0  0  0
  7 10  1  1  0  0  0
  7  6  1  0  0  0  0
  8  7  1  0  0  0  0
  9  8  1  0  0  0  0
  9 34  1  0  0  0  0
  9  4  1  0  0  0  0
 10 11  3  0  0  0  0
 12  7  1  0  0  0  0
 12 13  2  0  0  0  0
 13 36  1  0  0  0  0
 14 13  1  0  0  0  0
 14 37  1  0  0  0  0
 15 14  2  0  0  0  0
 16 15  1  0  0  0  0
 16 17  1  0  0  0  0
 17 39  1  0  0  0  0
 18 19  2  0  0  0  0
 18 15  1  0  0  0  0
 19 12  1  0  0  0  0
 20 18  1  0  0  0  0
 20 21  1  0  0  0  0
 21 42  1  0  0  0  0
 21 22  1  0  0  0  0
 22 43  1  0  0  0  0
 22 44  1  0  0  0  0
 23 45  1  0  0  0  0
 23 22  1  0  0  0  0
 24 25  1  0  0  0  0
 24 23  1  0  0  0  0
 25 49  1  0  0  0  0
 25 21  1  0  0  0  0
 26  1  1  0  0  0  0
 30  6  1  0  0  0  0
 32  8  1  0  0  0  0
 33  8  1  0  0  0  0
 35  9  1  0  0  0  0
 38 17  1  0  0  0  0
 40 17  1  0  0  0  0
 41 19  1  0  0  0  0
 46 23  1  0  0  0  0
 47 24  1  0  0  0  0
 48 24  1  0  0  0  0
 50 25  1  0  0  0  0
M  END
