omegapdb_1m5f_15.log
 OpenBabel09261812563D

 25 25  0  0  1  0  0  0  0  0999 V2000
    0.7977   -2.3340   -0.4084 O   0  0  0  0  0  0  0  0  0  0  0  0
    1.9779   -1.7046   -0.2164 C   0  0  0  0  0  0  0  0  0  0  0  0
    3.0270   -2.2884   -0.1525 O   0  0  0  0  0  0  0  0  0  0  0  0
    1.8066   -0.2291   -0.0939 C   0  0  0  0  0  0  0  0  0  0  0  0
    2.8636    0.4656    0.2540 N   0  0  0  0  0  0  0  0  0  0  0  0
    2.4561    1.7626    0.2784 O   0  0  0  0  0  0  0  0  0  0  0  0
    1.1557    1.8473   -0.0603 C   0  0  0  0  0  0  0  0  0  0  0  0
    0.6635    0.6034   -0.3164 C   0  0  0  0  0  0  0  0  0  0  0  0
   -0.7403    0.2493   -0.7054 C   0  0  0  0  0  0  0  0  0  0  0  0
   -1.6811    0.1297    0.5250 C   0  0  2  0  0  0  0  0  0  0  0  0
   -1.3000   -0.8398    1.5293 N   0  0  0  0  0  0  0  0  0  0  0  0
   -3.0511   -0.2506   -0.0008 C   0  0  0  0  0  0  0  0  0  0  0  0
   -3.4690   -1.3793   -0.0815 O   0  0  0  0  0  0  0  0  0  0  0  0
   -3.7373    0.8187   -0.4479 O   0  0  0  0  0  0  0  0  0  0  0  0
    0.5588    3.2097   -0.0854 C   0  0  0  0  0  0  0  0  0  0  0  0
    1.0115   -3.2790   -0.4896 H   0  0  0  0  0  0  0  0  0  0  0  0
   -0.7474   -0.7018   -1.2452 H   0  0  0  0  0  0  0  0  0  0  0  0
   -1.1375    1.0157   -1.3826 H   0  0  0  0  0  0  0  0  0  0  0  0
   -1.7590    1.1169    0.9965 H   0  0  0  0  0  0  0  0  0  0  0  0
   -1.3568   -1.7720    1.1287 H   0  0  0  0  0  0  0  0  0  0  0  0
   -0.3371   -0.6859    1.8132 H   0  0  0  0  0  0  0  0  0  0  0  0
   -4.5695    0.4736   -0.8125 H   0  0  0  0  0  0  0  0  0  0  0  0
   -0.4459    3.1725   -0.5140 H   0  0  0  0  0  0  0  0  0  0  0  0
    1.1725    3.8868   -0.6868 H   0  0  0  0  0  0  0  0  0  0  0  0
    0.4883    3.6247    0.9253 H   0  0  0  0  0  0  0  0  0  0  0  0
  1  2  1  0  0  0  0
  2  3  2  0  0  0  0
  2  4  1  0  0  0  0
  4  5  2  0  0  0  0
  5  6  1  0  0  0  0
  7  6  1  0  0  0  0
  8  4  1  0  0  0  0
  8  7  2  0  0  0  0
  9  8  1  0  0  0  0
  9 10  1  0  0  0  0
 10 19  1  1  0  0  0
 10 11  1  0  0  0  0
 11 21  1  0  0  0  0
 12 10  1  0  0  0  0
 13 12  2  0  0  0  0
 14 12  1  0  0  0  0
 15  7  1  0  0  0  0
 15 25  1  0  0  0  0
 16  1  1  0  0  0  0
 17  9  1  0  0  0  0
 18  9  1  0  0  0  0
 20 11  1  0  0  0  0
 22 14  1  0  0  0  0
 23 15  1  0  0  0  0
 24 15  1  0  0  0  0
M  END
