omegapdb_2f7p_14.log
 OpenBabel09261812563D

 34 35  0  0  1  0  0  0  0  0999 V2000
   -0.9685    0.0971   -0.8554 C   0  0  1  0  0  0  0  0  0  0  0  0
    0.4763    0.1163   -0.8386 N   0  0  0  0  0  0  0  0  0  0  0  0
    1.1514   -0.1017    0.4371 C   0  0  0  0  0  0  0  0  0  0  0  0
    2.6540   -0.1147    0.2531 C   0  0  0  0  0  0  0  0  0  0  0  0
    3.4896    0.4704    1.2039 C   0  0  0  0  0  0  0  0  0  0  0  0
    4.8735    0.4293    1.0578 C   0  0  0  0  0  0  0  0  0  0  0  0
    5.4386   -0.1928   -0.0505 C   0  0  0  0  0  0  0  0  0  0  0  0
    4.6114   -0.7737   -1.0086 C   0  0  0  0  0  0  0  0  0  0  0  0
    3.2296   -0.7359   -0.8574 C   0  0  0  0  0  0  0  0  0  0  0  0
   -1.6418   -1.2705   -0.6771 C   0  0  1  0  0  0  0  0  0  0  0  0
   -1.3038   -1.9850    0.5060 O   0  0  0  0  0  0  0  0  0  0  0  0
   -3.1265   -0.8810   -0.5999 C   0  0  1  0  0  0  0  0  0  0  0  0
   -3.9322   -1.9170   -0.0838 O   0  0  0  0  0  0  0  0  0  0  0  0
   -3.1114    0.3455    0.3510 C   0  0  1  0  0  0  0  0  0  0  0  0
   -3.1245   -0.1395    1.6893 O   0  0  0  0  0  0  0  0  0  0  0  0
   -1.7449    1.0264    0.1227 C   0  0  2  0  0  0  0  0  0  0  0  0
   -1.7721    2.7654   -0.3907 S   0  0  0  0  0  0  0  0  0  0  0  0
   -1.2503    0.4026   -1.8741 H   0  0  0  0  0  0  0  0  0  0  0  0
    0.7986    0.9940   -1.2369 H   0  0  0  0  0  0  0  0  0  0  0  0
    0.8202   -1.0699    0.8255 H   0  0  0  0  0  0  0  0  0  0  0  0
    0.8987    0.6553    1.2011 H   0  0  0  0  0  0  0  0  0  0  0  0
    3.0520    0.9666    2.0687 H   0  0  0  0  0  0  0  0  0  0  0  0
    5.5102    0.8913    1.8084 H   0  0  0  0  0  0  0  0  0  0  0  0
    6.5188   -0.2221   -0.1703 H   0  0  0  0  0  0  0  0  0  0  0  0
    5.0458   -1.2593   -1.8792 H   0  0  0  0  0  0  0  0  0  0  0  0
    2.5777   -1.1805   -1.6046 H   0  0  0  0  0  0  0  0  0  0  0  0
   -1.4057   -1.9415   -1.5071 H   0  0  0  0  0  0  0  0  0  0  0  0
   -1.6003   -1.4403    1.2590 H   0  0  0  0  0  0  0  0  0  0  0  0
   -3.5052   -0.5955   -1.5889 H   0  0  0  0  0  0  0  0  0  0  0  0
   -3.3064   -2.5689    0.2754 H   0  0  0  0  0  0  0  0  0  0  0  0
   -3.9560    1.0259    0.1873 H   0  0  0  0  0  0  0  0  0  0  0  0
   -3.8386   -0.7997    1.7019 H   0  0  0  0  0  0  0  0  0  0  0  0
   -1.2466    1.0556    1.0974 H   0  0  0  0  0  0  0  0  0  0  0  0
   -2.3379    2.5673   -1.5935 H   0  0  0  0  0  0  0  0  0  0  0  0
  1  2  1  0  0  0  0
  1 10  1  1  0  0  0
  2  3  1  0  0  0  0
  3 20  1  0  0  0  0
  3 21  1  0  0  0  0
  4  3  1  0  0  0  0
  4  5  2  0  0  0  0
  5 22  1  0  0  0  0
  6  5  1  0  0  0  0
  6 23  1  0  0  0  0
  7  6  2  0  0  0  0
  8  9  2  0  0  0  0
  8  7  1  0  0  0  0
  9  4  1  0  0  0  0
 10 12  1  1  0  0  0
 10 11  1  0  0  0  0
 11 28  1  0  0  0  0
 12 13  1  0  0  0  0
 12 14  1  1  0  0  0
 13 30  1  0  0  0  0
 14 16  1  6  0  0  0
 14 15  1  0  0  0  0
 15 32  1  0  0  0  0
 16  1  1  6  0  0  0
 16 33  1  0  0  0  0
 17 16  1  0  0  0  0
 18  1  1  0  0  0  0
 19  2  1  0  0  0  0
 24  7  1  0  0  0  0
 25  8  1  0  0  0  0
 26  9  1  0  0  0  0
 27 10  1  0  0  0  0
 29 12  1  0  0  0  0
 31 14  1  0  0  0  0
 34 17  1  0  0  0  0
M  END
