omegapdb_1v2k_14.log
 OpenBabel09261812563D

 61 65  0  0  0  0  0  0  0  0999 V2000
    7.2403    4.4278    0.5576 N   0  0  0  0  0  0  0  0  0  0  0  0
    7.1901    3.8283   -0.6339 C   0  0  0  0  0  0  0  0  0  0  0  0
    6.4862    2.6672   -0.9119 C   0  0  0  0  0  0  0  0  0  0  0  0
    5.7558    2.0378    0.1146 C   0  0  0  0  0  0  0  0  0  0  0  0
    5.7992    2.6685    1.3724 C   0  0  0  0  0  0  0  0  0  0  0  0
    6.5432    3.8285    1.5252 C   0  0  0  0  0  0  0  0  0  0  0  0
    5.0488    0.8794   -0.1226 N   0  0  0  0  0  0  0  0  0  0  0  0
    4.3870    0.1640    0.9556 C   0  0  0  0  0  0  0  0  0  0  0  0
    4.3362   -1.3451    0.6919 C   0  0  0  0  0  0  0  0  0  0  0  0
    3.8790   -1.7077   -0.7439 C   0  0  0  0  0  0  0  0  0  0  0  0
    3.5393   -0.4486   -1.5529 C   0  0  0  0  0  0  0  0  0  0  0  0
    4.7093    0.5279   -1.4990 C   0  0  0  0  0  0  0  0  0  0  0  0
    2.8158   -2.8035   -0.8755 C   0  0  0  0  0  0  0  0  0  0  0  0
    3.0308   -3.7397   -1.6335 O   0  0  0  0  0  0  0  0  0  0  0  0
    1.6558   -2.7372   -0.1429 N   0  0  0  0  0  0  0  0  0  0  0  0
    1.1324   -1.5811    0.5689 C   0  0  0  0  0  0  0  0  0  0  0  0
   -0.1204   -1.0498   -0.1368 C   0  0  0  0  0  0  0  0  0  0  0  0
   -1.1225   -2.0952   -0.3701 N   0  0  0  0  0  0  0  0  0  0  0  0
   -0.5627   -3.2901   -1.0224 C   0  0  0  0  0  0  0  0  0  0  0  0
    0.6751   -3.8070   -0.2939 C   0  0  0  0  0  0  0  0  0  0  0  0
   -2.1800   -2.3721    0.8958 S   0  0  0  0  0  0  0  0  0  0  0  0
   -2.9235   -3.5728    0.5500 O   0  0  0  0  0  0  0  0  0  0  0  0
   -1.4995   -2.2884    2.1856 O   0  0  0  0  0  0  0  0  0  0  0  0
   -3.2426   -0.9486    0.7884 C   0  0  0  0  0  0  0  0  0  0  0  0
   -3.8085   -0.6089   -0.4120 C   0  0  0  0  0  0  0  0  0  0  0  0
   -4.7072    0.4837   -0.4822 C   0  0  0  0  0  0  0  0  0  0  0  0
   -5.0129    1.2043    0.7022 C   0  0  0  0  0  0  0  0  0  0  0  0
   -4.4074    0.8153    1.9272 C   0  0  0  0  0  0  0  0  0  0  0  0
   -3.5378   -0.2401    1.9768 C   0  0  0  0  0  0  0  0  0  0  0  0
   -5.9150    2.2995    0.6337 C   0  0  0  0  0  0  0  0  0  0  0  0
   -6.4747    2.6437   -0.5644 C   0  0  0  0  0  0  0  0  0  0  0  0
   -6.1786    1.9335   -1.7547 C   0  0  0  0  0  0  0  0  0  0  0  0
   -5.3128    0.8778   -1.7073 C   0  0  0  0  0  0  0  0  0  0  0  0
   -7.5789    3.9816   -0.6542 Cl  0  0  0  0  0  0  0  0  0  0  0  0
    7.7580    4.3069   -1.4314 H   0  0  0  0  0  0  0  0  0  0  0  0
    6.5329    2.2481   -1.9110 H   0  0  0  0  0  0  0  0  0  0  0  0
    5.2442    2.2892    2.2229 H   0  0  0  0  0  0  0  0  0  0  0  0
    6.5701    4.3140    2.5004 H   0  0  0  0  0  0  0  0  0  0  0  0
    4.9549    0.3207    1.8754 H   0  0  0  0  0  0  0  0  0  0  0  0
    3.3777    0.5706    1.1413 H   0  0  0  0  0  0  0  0  0  0  0  0
    3.6972   -1.8115    1.4501 H   0  0  0  0  0  0  0  0  0  0  0  0
    5.3402   -1.7514    0.8495 H   0  0  0  0  0  0  0  0  0  0  0  0
    4.7264   -2.1693   -1.2593 H   0  0  0  0  0  0  0  0  0  0  0  0
    3.3522   -0.7197   -2.5976 H   0  0  0  0  0  0  0  0  0  0  0  0
    2.6327    0.0462   -1.1834 H   0  0  0  0  0  0  0  0  0  0  0  0
    4.4516    1.4402   -2.0529 H   0  0  0  0  0  0  0  0  0  0  0  0
    5.5755    0.0751   -2.0065 H   0  0  0  0  0  0  0  0  0  0  0  0
    1.8775   -0.7889    0.6218 H   0  0  0  0  0  0  0  0  0  0  0  0
    0.8723   -1.8740    1.5933 H   0  0  0  0  0  0  0  0  0  0  0  0
    0.1511   -0.6470   -1.1213 H   0  0  0  0  0  0  0  0  0  0  0  0
   -0.5721   -0.2371    0.4412 H   0  0  0  0  0  0  0  0  0  0  0  0
   -1.3416   -4.0526   -1.0763 H   0  0  0  0  0  0  0  0  0  0  0  0
   -0.2934   -2.9948   -2.0437 H   0  0  0  0  0  0  0  0  0  0  0  0
    0.3957   -4.1734    0.7030 H   0  0  0  0  0  0  0  0  0  0  0  0
    1.1446   -4.6160   -0.8537 H   0  0  0  0  0  0  0  0  0  0  0  0
   -3.5639   -1.1669   -1.3126 H   0  0  0  0  0  0  0  0  0  0  0  0
   -4.6447    1.3712    2.8310 H   0  0  0  0  0  0  0  0  0  0  0  0
   -3.0643   -0.5454    2.9045 H   0  0  0  0  0  0  0  0  0  0  0  0
   -6.1561    2.8565    1.5346 H   0  0  0  0  0  0  0  0  0  0  0  0
   -6.6455    2.2385   -2.6858 H   0  0  0  0  0  0  0  0  0  0  0  0
   -5.0786    0.3234   -2.6129 H   0  0  0  0  0  0  0  0  0  0  0  0
  1  6  2  0  0  0  0
  2  1  1  0  0  0  0
  3  2  2  0  0  0  0
  3  4  1  0  0  0  0
  4  5  2  0  0  0  0
  5  6  1  0  0  0  0
  5 37  1  0  0  0  0
  6 38  1  0  0  0  0
  7  4  1  0  0  0  0
  7  8  1  0  0  0  0
  8 40  1  0  0  0  0
  8 39  1  0  0  0  0
  9 42  1  0  0  0  0
  9  8  1  0  0  0  0
  9 41  1  0  0  0  0
 10  9  1  0  0  0  0
 11 12  1  0  0  0  0
 11 45  1  0  0  0  0
 11 10  1  0  0  0  0
 12  7  1  0  0  0  0
 13 10  1  0  0  0  0
 13 15  1  0  0  0  0
 14 13  2  0  0  0  0
 15 16  1  0  0  0  0
 16 48  1  0  0  0  0
 16 49  1  0  0  0  0
 17 51  1  0  0  0  0
 17 16  1  0  0  0  0
 18 17  1  0  0  0  0
 18 21  1  0  0  0  0
 19 18  1  0  0  0  0
 19 20  1  0  0  0  0
 20 15  1  0  0  0  0
 20 54  1  0  0  0  0
 21 23  2  0  0  0  0
 22 21  2  0  0  0  0
 24 21  1  0  0  0  0
 24 29  2  0  0  0  0
 25 24  1  0  0  0  0
 26 25  2  0  0  0  0
 26 27  1  0  0  0  0
 27 28  2  0  0  0  0
 28 29  1  0  0  0  0
 28 57  1  0  0  0  0
 29 58  1  0  0  0  0
 30 27  1  0  0  0  0
 30 59  1  0  0  0  0
 31 30  2  0  0  0  0
 32 33  2  0  0  0  0
 32 31  1  0  0  0  0
 33 26  1  0  0  0  0
 34 31  1  0  0  0  0
 35  2  1  0  0  0  0
 36  3  1  0  0  0  0
 43 10  1  0  0  0  0
 44 11  1  0  0  0  0
 46 12  1  0  0  0  0
 47 12  1  0  0  0  0
 50 17  1  0  0  0  0
 52 19  1  0  0  0  0
 53 19  1  0  0  0  0
 55 20  1  0  0  0  0
 56 25  1  0  0  0  0
 60 32  1  0  0  0  0
 61 33  1  0  0  0  0
M  END
