omegapdb_1qxw_22.log
 OpenBabel09261812563D

 36 36  0  0  1  0  0  0  0  0999 V2000
   -3.7650    1.2887    0.9479 C   0  0  0  0  0  0  0  0  0  0  0  0
   -4.5569    0.6323   -0.1562 C   0  0  0  0  0  0  0  0  0  0  0  0
   -3.0832    0.8126   -0.3109 C   0  0  0  0  0  0  0  0  0  0  0  0
   -2.2237   -0.3407   -0.3272 N   0  0  0  0  0  0  0  0  0  0  0  0
   -0.9392   -0.1301    0.3346 C   0  0  0  0  0  0  0  0  0  0  0  0
    0.1124   -1.0822   -0.2479 C   0  0  0  0  0  0  0  0  0  0  0  0
    1.2651   -1.4219    0.7138 C   0  0  1  0  0  0  0  0  0  0  0  0
    2.2188   -2.2014   -0.0794 N   0  0  0  0  0  0  0  0  0  0  0  0
    1.9743   -0.2408    1.3949 C   0  0  0  0  0  0  0  0  0  0  0  0
    2.8361    0.6984    0.5326 C   0  0  0  0  0  0  0  0  0  0  0  0
    2.1138    1.9175   -0.0443 C   0  0  0  0  0  0  0  0  0  0  0  0
    3.0757    2.8735   -0.7459 C   0  0  0  0  0  0  0  0  0  0  0  0
    0.6027   -0.5265   -1.4346 O   0  0  0  0  0  0  0  0  0  0  0  0
   -0.4950   -2.3360   -0.5217 O   0  0  0  0  0  0  0  0  0  0  0  0
   -3.8868    2.3562    1.1097 H   0  0  0  0  0  0  0  0  0  0  0  0
   -3.6023    0.7126    1.8560 H   0  0  0  0  0  0  0  0  0  0  0  0
   -4.9280   -0.3752    0.0194 H   0  0  0  0  0  0  0  0  0  0  0  0
   -5.2198    1.2455   -0.7594 H   0  0  0  0  0  0  0  0  0  0  0  0
   -2.7548    1.5824   -1.0071 H   0  0  0  0  0  0  0  0  0  0  0  0
   -2.6961   -1.1273    0.1074 H   0  0  0  0  0  0  0  0  0  0  0  0
   -0.6191    0.9013    0.1615 H   0  0  0  0  0  0  0  0  0  0  0  0
   -1.0053   -0.2755    1.4261 H   0  0  0  0  0  0  0  0  0  0  0  0
    0.8077   -2.0198    1.5190 H   0  0  0  0  0  0  0  0  0  0  0  0
    1.7943   -3.0937   -0.3161 H   0  0  0  0  0  0  0  0  0  0  0  0
    3.0633   -2.3878    0.4529 H   0  0  0  0  0  0  0  0  0  0  0  0
    2.6200   -0.6906    2.1624 H   0  0  0  0  0  0  0  0  0  0  0  0
    1.2322    0.3455    1.9537 H   0  0  0  0  0  0  0  0  0  0  0  0
    3.6636    1.0625    1.1575 H   0  0  0  0  0  0  0  0  0  0  0  0
    3.3009    0.1284   -0.2821 H   0  0  0  0  0  0  0  0  0  0  0  0
    1.5994    2.4493    0.7700 H   0  0  0  0  0  0  0  0  0  0  0  0
    1.3471    1.5832   -0.7502 H   0  0  0  0  0  0  0  0  0  0  0  0
    2.5503    3.7429   -1.1552 H   0  0  0  0  0  0  0  0  0  0  0  0
    3.5879    2.3737   -1.5768 H   0  0  0  0  0  0  0  0  0  0  0  0
    3.8450    3.2413   -0.0556 H   0  0  0  0  0  0  0  0  0  0  0  0
    1.4265   -1.0227   -1.6027 H   0  0  0  0  0  0  0  0  0  0  0  0
   -1.1518   -2.1253   -1.2051 H   0  0  0  0  0  0  0  0  0  0  0  0
  1 15  1  0  0  0  0
  1 16  1  0  0  0  0
  2 17  1  0  0  0  0
  2  1  1  0  0  0  0
  3  2  1  0  0  0  0
  3  1  1  0  0  0  0
  4  3  1  0  0  0  0
  4 20  1  0  0  0  0
  4  5  1  0  0  0  0
  5 22  1  0  0  0  0
  6  5  1  0  0  0  0
  6  7  1  0  0  0  0
  7  9  1  0  0  0  0
  7 23  1  1  0  0  0
  8 25  1  0  0  0  0
  8  7  1  0  0  0  0
  9 27  1  0  0  0  0
  9 26  1  0  0  0  0
 10 28  1  0  0  0  0
 10  9  1  0  0  0  0
 11 10  1  0  0  0  0
 11 30  1  0  0  0  0
 12 34  1  0  0  0  0
 12 11  1  0  0  0  0
 13  6  1  0  0  0  0
 14  6  1  0  0  0  0
 18  2  1  0  0  0  0
 19  3  1  0  0  0  0
 21  5  1  0  0  0  0
 24  8  1  0  0  0  0
 29 10  1  0  0  0  0
 31 11  1  0  0  0  0
 32 12  1  0  0  0  0
 33 12  1  0  0  0  0
 35 13  1  0  0  0  0
 36 14  1  0  0  0  0
M  END
