omegapdb_1m5f_07.log
 OpenBabel09261812563D

 25 25  0  0  1  0  0  0  0  0999 V2000
    3.5520   -1.3192    0.5331 O   0  0  0  0  0  0  0  0  0  0  0  0
    2.2943   -1.2962    0.0840 C   0  0  0  0  0  0  0  0  0  0  0  0
    1.6806   -2.3020   -0.1772 O   0  0  0  0  0  0  0  0  0  0  0  0
    1.7013    0.0647   -0.0609 C   0  0  0  0  0  0  0  0  0  0  0  0
    2.3969    1.1067    0.3169 N   0  0  0  0  0  0  0  0  0  0  0  0
    1.5963    2.1839    0.0978 O   0  0  0  0  0  0  0  0  0  0  0  0
    0.4154    1.7774   -0.4124 C   0  0  0  0  0  0  0  0  0  0  0  0
    0.4193    0.4225   -0.5537 C   0  0  0  0  0  0  0  0  0  0  0  0
   -0.6487   -0.4976   -1.0535 C   0  0  0  0  0  0  0  0  0  0  0  0
   -1.4768   -1.1248    0.0854 C   0  0  2  0  0  0  0  0  0  0  0  0
   -2.3439   -2.1720   -0.4569 N   0  0  0  0  0  0  0  0  0  0  0  0
   -2.3519   -0.0223    0.6975 C   0  0  0  0  0  0  0  0  0  0  0  0
   -1.9250    0.8145    1.4548 O   0  0  0  0  0  0  0  0  0  0  0  0
   -3.6114   -0.0268    0.2551 O   0  0  0  0  0  0  0  0  0  0  0  0
   -0.6070    2.8290   -0.6488 C   0  0  0  0  0  0  0  0  0  0  0  0
    3.8473   -0.4051    0.6961 H   0  0  0  0  0  0  0  0  0  0  0  0
   -1.3214    0.0293   -1.7418 H   0  0  0  0  0  0  0  0  0  0  0  0
   -0.1732   -1.3128   -1.6088 H   0  0  0  0  0  0  0  0  0  0  0  0
   -0.7872   -1.4835    0.8582 H   0  0  0  0  0  0  0  0  0  0  0  0
   -2.5783   -2.8477    0.2650 H   0  0  0  0  0  0  0  0  0  0  0  0
   -1.8707   -2.6862   -1.1940 H   0  0  0  0  0  0  0  0  0  0  0  0
   -3.6825   -0.8265   -0.3158 H   0  0  0  0  0  0  0  0  0  0  0  0
   -0.1412    3.7459   -1.0191 H   0  0  0  0  0  0  0  0  0  0  0  0
   -1.3424    2.4820   -1.3795 H   0  0  0  0  0  0  0  0  0  0  0  0
   -1.1376    3.0429    0.2841 H   0  0  0  0  0  0  0  0  0  0  0  0
  1 16  1  0  0  0  0
  2  1  1  0  0  0  0
  3  2  2  0  0  0  0
  4  2  1  0  0  0  0
  4  5  2  0  0  0  0
  6  5  1  0  0  0  0
  7  6  1  0  0  0  0
  8  7  2  0  0  0  0
  8  4  1  0  0  0  0
  9  8  1  0  0  0  0
  9 10  1  0  0  0  0
 10 12  1  0  0  0  0
 10 19  1  1  0  0  0
 11 10  1  0  0  0  0
 11 20  1  0  0  0  0
 12 13  2  0  0  0  0
 14 12  1  0  0  0  0
 15  7  1  0  0  0  0
 15 25  1  0  0  0  0
 17  9  1  0  0  0  0
 18  9  1  0  0  0  0
 21 11  1  0  0  0  0
 22 14  1  0  0  0  0
 23 15  1  0  0  0  0
 24 15  1  0  0  0  0
M  END
