omegapdb_1z1r_08.log
 OpenBabel09261812563D

 66 68  0  0  1  0  0  0  0  0999 V2000
    0.0777   -1.0633    1.5416 C   0  0  2  0  0  0  0  0  0  0  0  0
    0.0334   -2.4635    0.8922 C   0  0  0  0  0  0  0  0  0  0  0  0
   -1.3519   -2.8002    0.3881 C   0  0  0  0  0  0  0  0  0  0  0  0
   -1.6421   -2.7898   -0.9786 C   0  0  0  0  0  0  0  0  0  0  0  0
   -2.9535   -2.8846   -1.4394 C   0  0  0  0  0  0  0  0  0  0  0  0
   -3.9992   -2.9711   -0.5234 C   0  0  0  0  0  0  0  0  0  0  0  0
   -3.7195   -3.0678    0.8400 C   0  0  0  0  0  0  0  0  0  0  0  0
   -2.4081   -2.9814    1.2863 C   0  0  0  0  0  0  0  0  0  0  0  0
   -5.3074   -2.9600   -0.9218 O   0  0  0  0  0  0  0  0  0  0  0  0
   -5.7657   -1.7430   -1.5256 C   0  0  0  0  0  0  0  0  0  0  0  0
   -5.7642   -0.5417   -0.5775 C   0  0  0  0  0  0  0  0  0  0  0  0
   -4.4389    0.2192   -0.5123 C   0  0  0  0  0  0  0  0  0  0  0  0
   -4.4156    1.2268    0.6254 C   0  0  0  0  0  0  0  0  0  0  0  0
   -5.3632    1.4035    1.3707 O   0  0  0  0  0  0  0  0  0  0  0  0
   -3.2563    1.9470    0.7941 N   0  0  0  0  0  0  0  0  0  0  0  0
   -1.9995    1.7961    0.0890 C   0  0  2  0  0  0  0  0  0  0  0  0
   -0.9894    1.1213    1.0173 C   0  0  0  0  0  0  0  0  0  0  0  0
   -0.5974    1.6936    2.0337 O   0  0  0  0  0  0  0  0  0  0  0  0
   -0.5974   -0.1167    0.6501 N   0  0  0  0  0  0  0  0  0  0  0  0
   -1.4797    3.1471   -0.3907 C   0  0  0  0  0  0  0  0  0  0  0  0
   -2.3802    3.6747   -1.5016 C   0  0  0  0  0  0  0  0  0  0  0  0
   -2.9910    2.9267   -2.2494 O   0  0  0  0  0  0  0  0  0  0  0  0
   -2.4261    5.0243   -1.6209 N   0  0  0  0  0  0  0  0  0  0  0  0
    1.5113   -0.6432    1.9266 C   0  0  2  0  0  0  0  0  0  0  0  0
    1.5319    0.2410    3.0245 O   0  0  0  0  0  0  0  0  0  0  0  0
    2.2959   -0.0480    0.7559 C   0  0  0  0  0  0  0  0  0  0  0  0
    3.6162    0.3124    1.2632 N   0  0  0  0  0  0  0  0  0  0  0  0
    4.6154    1.1733    0.2505 S   0  0  0  0  0  0  0  0  0  0  0  0
    5.5582    1.8550    1.1222 O   0  0  0  0  0  0  0  0  0  0  0  0
    3.8340    1.9108   -0.7354 O   0  0  0  0  0  0  0  0  0  0  0  0
    5.4682   -0.1197   -0.6220 C   0  0  0  0  0  0  0  0  0  0  0  0
    6.4123   -0.8814    0.0625 C   0  0  0  0  0  0  0  0  0  0  0  0
    7.0853   -1.8873   -0.6176 C   0  0  0  0  0  0  0  0  0  0  0  0
    6.8141   -2.1209   -1.9658 C   0  0  0  0  0  0  0  0  0  0  0  0
    5.8736   -1.3487   -2.6390 C   0  0  0  0  0  0  0  0  0  0  0  0
    5.1931   -0.3362   -1.9662 C   0  0  0  0  0  0  0  0  0  0  0  0
   -0.4848   -1.0975    2.4849 H   0  0  0  0  0  0  0  0  0  0  0  0
    0.3673   -3.1873    1.6440 H   0  0  0  0  0  0  0  0  0  0  0  0
    0.7527   -2.5089    0.0641 H   0  0  0  0  0  0  0  0  0  0  0  0
   -0.8309   -2.6889   -1.6986 H   0  0  0  0  0  0  0  0  0  0  0  0
   -3.1693   -2.8557   -2.5041 H   0  0  0  0  0  0  0  0  0  0  0  0
   -4.5472   -3.1663    1.5362 H   0  0  0  0  0  0  0  0  0  0  0  0
   -2.2062   -3.0133    2.3557 H   0  0  0  0  0  0  0  0  0  0  0  0
   -5.1829   -1.5303   -2.4340 H   0  0  0  0  0  0  0  0  0  0  0  0
   -6.7877   -1.9765   -1.8335 H   0  0  0  0  0  0  0  0  0  0  0  0
   -6.0505   -0.8807    0.4237 H   0  0  0  0  0  0  0  0  0  0  0  0
   -6.5507    0.1532   -0.8924 H   0  0  0  0  0  0  0  0  0  0  0  0
   -3.6050   -0.4756   -0.3618 H   0  0  0  0  0  0  0  0  0  0  0  0
   -4.2405    0.7476   -1.4548 H   0  0  0  0  0  0  0  0  0  0  0  0
   -3.2434    2.5102    1.6357 H   0  0  0  0  0  0  0  0  0  0  0  0
   -2.1792    1.1896   -0.8001 H   0  0  0  0  0  0  0  0  0  0  0  0
   -1.0649   -0.5205   -0.1507 H   0  0  0  0  0  0  0  0  0  0  0  0
   -1.4065    3.8439    0.4516 H   0  0  0  0  0  0  0  0  0  0  0  0
   -0.4668    3.0335   -0.7996 H   0  0  0  0  0  0  0  0  0  0  0  0
   -1.9252    5.6407   -1.0024 H   0  0  0  0  0  0  0  0  0  0  0  0
   -2.9773    5.4218   -2.3662 H   0  0  0  0  0  0  0  0  0  0  0  0
    2.0365   -1.5444    2.2677 H   0  0  0  0  0  0  0  0  0  0  0  0
    0.8445    0.9177    2.8564 H   0  0  0  0  0  0  0  0  0  0  0  0
    1.7712    0.8245    0.3478 H   0  0  0  0  0  0  0  0  0  0  0  0
    2.4113   -0.7827   -0.0513 H   0  0  0  0  0  0  0  0  0  0  0  0
    3.5468    0.7875    2.1631 H   0  0  0  0  0  0  0  0  0  0  0  0
    6.6148   -0.6774    1.1100 H   0  0  0  0  0  0  0  0  0  0  0  0
    7.8264   -2.4885   -0.0983 H   0  0  0  0  0  0  0  0  0  0  0  0
    7.3452   -2.9086   -2.4941 H   0  0  0  0  0  0  0  0  0  0  0  0
    5.6722   -1.5277   -3.6916 H   0  0  0  0  0  0  0  0  0  0  0  0
    4.4657    0.2937   -2.4696 H   0  0  0  0  0  0  0  0  0  0  0  0
  1 24  1  0  0  0  0
  1 37  1  1  0  0  0
  2  1  1  0  0  0  0
  2 38  1  0  0  0  0
  3  2  1  0  0  0  0
  3  8  2  0  0  0  0
  4  3  1  0  0  0  0
  5  4  2  0  0  0  0
  5  6  1  0  0  0  0
  6  7  2  0  0  0  0
  7  8  1  0  0  0  0
  7 42  1  0  0  0  0
  8 43  1  0  0  0  0
  9  6  1  0  0  0  0
 10  9  1  0  0  0  0
 10 11  1  0  0  0  0
 11 12  1  0  0  0  0
 11 46  1  0  0  0  0
 12 48  1  0  0  0  0
 12 13  1  0  0  0  0
 13 15  1  0  0  0  0
 13 14  2  0  0  0  0
 15 50  1  0  0  0  0
 16 51  1  6  0  0  0
 16 15  1  0  0  0  0
 16 17  1  0  0  0  0
 17 18  2  0  0  0  0
 19 17  1  0  0  0  0
 19  1  1  0  0  0  0
 20 16  1  0  0  0  0
 20 53  1  0  0  0  0
 21 20  1  0  0  0  0
 22 21  2  0  0  0  0
 23 21  1  0  0  0  0
 23 55  1  0  0  0  0
 24 57  1  1  0  0  0
 24 25  1  0  0  0  0
 26 27  1  0  0  0  0
 26 24  1  0  0  0  0
 27 61  1  0  0  0  0
 28 29  2  0  0  0  0
 28 27  1  0  0  0  0
 30 28  2  0  0  0  0
 31 32  2  0  0  0  0
 31 28  1  0  0  0  0
 32 62  1  0  0  0  0
 33 63  1  0  0  0  0
 33 32  1  0  0  0  0
 34 33  2  0  0  0  0
 35 36  2  0  0  0  0
 35 34  1  0  0  0  0
 36 31  1  0  0  0  0
 39  2  1  0  0  0  0
 40  4  1  0  0  0  0
 41  5  1  0  0  0  0
 44 10  1  0  0  0  0
 45 10  1  0  0  0  0
 47 11  1  0  0  0  0
 49 12  1  0  0  0  0
 52 19  1  0  0  0  0
 54 20  1  0  0  0  0
 56 23  1  0  0  0  0
 58 25  1  0  0  0  0
 59 26  1  0  0  0  0
 60 26  1  0  0  0  0
 64 34  1  0  0  0  0
 65 35  1  0  0  0  0
 66 36  1  0  0  0  0
M  END
