omegapdb_1xom_17.log
 OpenBabel09261812563D

 50 52  0  0  1  0  0  0  0  0999 V2000
   -6.6649   -0.0476    1.2001 O   0  0  0  0  0  0  0  0  0  0  0  0
   -5.9499   -0.2504    0.0673 C   0  0  0  0  0  0  0  0  0  0  0  0
   -6.4489   -0.8229   -0.8630 O   0  0  0  0  0  0  0  0  0  0  0  0
   -4.5233    0.2862    0.0868 C   0  0  1  0  0  0  0  0  0  0  0  0
   -3.6857   -0.3820    1.1929 C   0  0  0  0  0  0  0  0  0  0  0  0
   -2.2537    0.1544    1.1998 C   0  0  0  0  0  0  0  0  0  0  0  0
   -1.5479   -0.0037   -0.1713 C   0  0  2  0  0  0  0  0  0  0  0  0
   -2.4270    0.6331   -1.2784 C   0  0  0  0  0  0  0  0  0  0  0  0
   -3.8596    0.1014   -1.2778 C   0  0  0  0  0  0  0  0  0  0  0  0
   -1.4471   -1.4519   -0.4491 C   0  0  0  0  0  0  0  0  0  0  0  0
   -1.4031   -2.5898   -0.6546 N   0  0  0  0  0  0  0  0  0  0  0  0
   -0.1516    0.6270   -0.1454 C   0  0  0  0  0  0  0  0  0  0  0  0
   -0.0102    1.9815    0.1407 C   0  0  0  0  0  0  0  0  0  0  0  0
    1.2437    2.5895    0.1660 C   0  0  0  0  0  0  0  0  0  0  0  0
    2.3915    1.8480   -0.0998 C   0  0  0  0  0  0  0  0  0  0  0  0
    3.6533    2.3500   -0.1185 O   0  0  0  0  0  0  0  0  0  0  0  0
    3.8112    3.7329    0.1188 C   0  0  0  0  0  0  0  0  0  0  0  0
    2.2632    0.4752   -0.3831 C   0  0  0  0  0  0  0  0  0  0  0  0
    1.0066   -0.1117   -0.4033 C   0  0  0  0  0  0  0  0  0  0  0  0
    3.3530   -0.2789   -0.7068 O   0  0  0  0  0  0  0  0  0  0  0  0
    4.2743   -0.5652    0.3638 C   0  0  0  0  0  0  0  0  0  0  0  0
    5.4094   -1.3592   -0.2670 C   0  0  0  0  0  0  0  0  0  0  0  0
    4.8156   -2.7649   -0.4659 C   0  0  0  0  0  0  0  0  0  0  0  0
    3.7405   -2.9227    0.6420 C   0  0  0  0  0  0  0  0  0  0  0  0
    3.6665   -1.5559    1.3560 C   0  0  0  0  0  0  0  0  0  0  0  0
   -6.1353    0.4404    1.8453 H   0  0  0  0  0  0  0  0  0  0  0  0
   -4.5858    1.3646    0.3101 H   0  0  0  0  0  0  0  0  0  0  0  0
   -4.1275   -0.2198    2.1847 H   0  0  0  0  0  0  0  0  0  0  0  0
   -3.6783   -1.4678    1.0302 H   0  0  0  0  0  0  0  0  0  0  0  0
   -2.2646    1.2233    1.4466 H   0  0  0  0  0  0  0  0  0  0  0  0
   -1.6597   -0.3460    1.9722 H   0  0  0  0  0  0  0  0  0  0  0  0
   -2.4317    1.7177   -1.1103 H   0  0  0  0  0  0  0  0  0  0  0  0
   -1.9541    0.4664   -2.2521 H   0  0  0  0  0  0  0  0  0  0  0  0
   -3.8740   -0.9642   -1.5359 H   0  0  0  0  0  0  0  0  0  0  0  0
   -4.4477    0.6096   -2.0482 H   0  0  0  0  0  0  0  0  0  0  0  0
   -0.8827    2.5976    0.3461 H   0  0  0  0  0  0  0  0  0  0  0  0
    1.3099    3.6499    0.3854 H   0  0  0  0  0  0  0  0  0  0  0  0
    3.4694    4.0101    1.1245 H   0  0  0  0  0  0  0  0  0  0  0  0
    4.8802    3.9321    0.0329 H   0  0  0  0  0  0  0  0  0  0  0  0
    3.2697    4.3303   -0.6256 H   0  0  0  0  0  0  0  0  0  0  0  0
    0.9599   -1.1720   -0.6378 H   0  0  0  0  0  0  0  0  0  0  0  0
    4.5968    0.3765    0.8204 H   0  0  0  0  0  0  0  0  0  0  0  0
    5.7601   -0.8958   -1.1936 H   0  0  0  0  0  0  0  0  0  0  0  0
    6.2484   -1.3861    0.4392 H   0  0  0  0  0  0  0  0  0  0  0  0
    5.5836   -3.5430   -0.4158 H   0  0  0  0  0  0  0  0  0  0  0  0
    4.3506   -2.8322   -1.4538 H   0  0  0  0  0  0  0  0  0  0  0  0
    2.7723   -3.1819    0.2020 H   0  0  0  0  0  0  0  0  0  0  0  0
    3.9909   -3.7223    1.3462 H   0  0  0  0  0  0  0  0  0  0  0  0
    4.2826   -1.5553    2.2639 H   0  0  0  0  0  0  0  0  0  0  0  0
    2.6505   -1.2771    1.6550 H   0  0  0  0  0  0  0  0  0  0  0  0
  1 26  1  0  0  0  0
  2  4  1  0  0  0  0
  2  1  1  0  0  0  0
  3  2  2  0  0  0  0
  4 27  1  1  0  0  0
  4  5  1  0  0  0  0
  5  6  1  0  0  0  0
  5 28  1  0  0  0  0
  6 30  1  0  0  0  0
  6 31  1  0  0  0  0
  7 10  1  6  0  0  0
  7 12  1  0  0  0  0
  7  6  1  0  0  0  0
  8  9  1  0  0  0  0
  8 32  1  0  0  0  0
  8  7  1  0  0  0  0
  9  4  1  0  0  0  0
 11 10  3  0  0  0  0
 12 13  2  0  0  0  0
 13 14  1  0  0  0  0
 13 36  1  0  0  0  0
 14 37  1  0  0  0  0
 15 14  2  0  0  0  0
 16 15  1  0  0  0  0
 16 17  1  0  0  0  0
 17 38  1  0  0  0  0
 18 15  1  0  0  0  0
 19 18  2  0  0  0  0
 19 12  1  0  0  0  0
 20 18  1  0  0  0  0
 20 21  1  0  0  0  0
 21 42  1  0  0  0  0
 21 25  1  0  0  0  0
 22 21  1  0  0  0  0
 22 44  1  0  0  0  0
 23 45  1  0  0  0  0
 23 22  1  0  0  0  0
 23 24  1  0  0  0  0
 24 48  1  0  0  0  0
 24 25  1  0  0  0  0
 25 50  1  0  0  0  0
 25 49  1  0  0  0  0
 29  5  1  0  0  0  0
 33  8  1  0  0  0  0
 34  9  1  0  0  0  0
 35  9  1  0  0  0  0
 39 17  1  0  0  0  0
 40 17  1  0  0  0  0
 41 19  1  0  0  0  0
 43 22  1  0  0  0  0
 46 23  1  0  0  0  0
 47 24  1  0  0  0  0
M  END
