omegapdb_1qxw_00.log
 OpenBabel09261812563D

 36 36  0  0  1  0  0  0  0  0999 V2000
   -3.9690   -1.8129    0.2843 C   0  0  0  0  0  0  0  0  0  0  0  0
   -4.9541   -0.6845    0.4158 C   0  0  0  0  0  0  0  0  0  0  0  0
   -3.7811   -0.5516   -0.5059 C   0  0  0  0  0  0  0  0  0  0  0  0
   -2.7169    0.3223   -0.0994 N   0  0  0  0  0  0  0  0  0  0  0  0
   -1.4278    0.0028   -0.7003 C   0  0  0  0  0  0  0  0  0  0  0  0
   -0.3803    0.8892   -0.0294 C   0  0  0  0  0  0  0  0  0  0  0  0
    1.0747    0.6632   -0.4791 C   0  0  1  0  0  0  0  0  0  0  0  0
    1.8393    1.7471    0.1472 N   0  0  0  0  0  0  0  0  0  0  0  0
    1.5848   -0.7567   -0.2074 C   0  0  0  0  0  0  0  0  0  0  0  0
    3.0536   -0.9864   -0.6009 C   0  0  0  0  0  0  0  0  0  0  0  0
    4.0591   -0.7797    0.5349 C   0  0  0  0  0  0  0  0  0  0  0  0
    5.5020   -0.9957    0.0868 C   0  0  0  0  0  0  0  0  0  0  0  0
   -0.4048    0.6662    1.3615 O   0  0  0  0  0  0  0  0  0  0  0  0
   -0.7479    2.2100   -0.3390 O   0  0  0  0  0  0  0  0  0  0  0  0
   -3.2818   -1.9728    1.1105 H   0  0  0  0  0  0  0  0  0  0  0  0
   -4.2763   -2.7129   -0.2401 H   0  0  0  0  0  0  0  0  0  0  0  0
   -4.9230   -0.0991    1.3299 H   0  0  0  0  0  0  0  0  0  0  0  0
   -5.9414   -0.8037   -0.0209 H   0  0  0  0  0  0  0  0  0  0  0  0
   -3.9872   -0.6158   -1.5789 H   0  0  0  0  0  0  0  0  0  0  0  0
   -2.9434    1.2891   -0.3178 H   0  0  0  0  0  0  0  0  0  0  0  0
   -1.2135   -1.0507   -0.4933 H   0  0  0  0  0  0  0  0  0  0  0  0
   -1.4012    0.1553   -1.7920 H   0  0  0  0  0  0  0  0  0  0  0  0
    1.1001    0.8487   -1.5618 H   0  0  0  0  0  0  0  0  0  0  0  0
    1.9225    1.5640    1.1444 H   0  0  0  0  0  0  0  0  0  0  0  0
    2.7756    1.8052   -0.2393 H   0  0  0  0  0  0  0  0  0  0  0  0
    0.9514   -1.4567   -0.7669 H   0  0  0  0  0  0  0  0  0  0  0  0
    1.4341   -0.9869    0.8553 H   0  0  0  0  0  0  0  0  0  0  0  0
    3.1745   -2.0121   -0.9735 H   0  0  0  0  0  0  0  0  0  0  0  0
    3.3190   -0.3345   -1.4483 H   0  0  0  0  0  0  0  0  0  0  0  0
    3.9509    0.2277    0.9572 H   0  0  0  0  0  0  0  0  0  0  0  0
    3.8166   -1.4741    1.3506 H   0  0  0  0  0  0  0  0  0  0  0  0
    5.7815   -0.2851   -0.7004 H   0  0  0  0  0  0  0  0  0  0  0  0
    5.6402   -2.0056   -0.3173 H   0  0  0  0  0  0  0  0  0  0  0  0
    6.2053   -0.8683    0.9164 H   0  0  0  0  0  0  0  0  0  0  0  0
   -1.3521    0.6341    1.5813 H   0  0  0  0  0  0  0  0  0  0  0  0
    0.0410    2.7330   -0.1031 H   0  0  0  0  0  0  0  0  0  0  0  0
  1  2  1  0  0  0  0
  1 15  1  0  0  0  0
  2 17  1  0  0  0  0
  3  4  1  0  0  0  0
  3  1  1  0  0  0  0
  3  2  1  0  0  0  0
  5 21  1  0  0  0  0
  5  4  1  0  0  0  0
  5  6  1  0  0  0  0
  6 13  1  0  0  0  0
  7 23  1  6  0  0  0
  7  9  1  0  0  0  0
  7  6  1  0  0  0  0
  7  8  1  0  0  0  0
  8 24  1  0  0  0  0
  9 27  1  0  0  0  0
 10  9  1  0  0  0  0
 10 11  1  0  0  0  0
 11 30  1  0  0  0  0
 11 31  1  0  0  0  0
 12 11  1  0  0  0  0
 12 34  1  0  0  0  0
 13 35  1  0  0  0  0
 14 36  1  0  0  0  0
 14  6  1  0  0  0  0
 16  1  1  0  0  0  0
 18  2  1  0  0  0  0
 19  3  1  0  0  0  0
 20  4  1  0  0  0  0
 22  5  1  0  0  0  0
 25  8  1  0  0  0  0
 26  9  1  0  0  0  0
 28 10  1  0  0  0  0
 29 10  1  0  0  0  0
 32 12  1  0  0  0  0
 33 12  1  0  0  0  0
M  END
