omegapdb_1z1r_20.log
 OpenBabel09261812563D

 66 68  0  0  1  0  0  0  0  0999 V2000
   -0.0706   -1.8805   -1.3948 C   0  0  2  0  0  0  0  0  0  0  0  0
    0.4739   -3.1897   -0.7753 C   0  0  0  0  0  0  0  0  0  0  0  0
    1.8675   -2.9716   -0.2286 C   0  0  0  0  0  0  0  0  0  0  0  0
    2.1034   -3.0071    1.1455 C   0  0  0  0  0  0  0  0  0  0  0  0
    3.2981   -2.5350    1.6836 C   0  0  0  0  0  0  0  0  0  0  0  0
    4.2726   -2.0085    0.8419 C   0  0  0  0  0  0  0  0  0  0  0  0
    4.0949   -2.0612   -0.5409 C   0  0  0  0  0  0  0  0  0  0  0  0
    2.9021   -2.5419   -1.0654 C   0  0  0  0  0  0  0  0  0  0  0  0
    5.3729   -1.3992    1.3974 O   0  0  0  0  0  0  0  0  0  0  0  0
    5.4136    0.0109    1.1528 C   0  0  0  0  0  0  0  0  0  0  0  0
    4.2682    0.7240    1.8761 C   0  0  0  0  0  0  0  0  0  0  0  0
    4.0015    2.1658    1.4090 C   0  0  0  0  0  0  0  0  0  0  0  0
    3.8507    2.2965   -0.1004 C   0  0  0  0  0  0  0  0  0  0  0  0
    4.8076    2.5788   -0.7998 O   0  0  0  0  0  0  0  0  0  0  0  0
    2.6081    2.1128   -0.6748 N   0  0  0  0  0  0  0  0  0  0  0  0
    1.4932    1.3743   -0.1185 C   0  0  2  0  0  0  0  0  0  0  0  0
    1.1567    0.2325   -1.0965 C   0  0  0  0  0  0  0  0  0  0  0  0
    1.5651    0.2660   -2.2458 O   0  0  0  0  0  0  0  0  0  0  0  0
    0.3165   -0.7135   -0.6106 N   0  0  0  0  0  0  0  0  0  0  0  0
    0.2323    2.2499    0.0772 C   0  0  0  0  0  0  0  0  0  0  0  0
   -0.3962    2.6217   -1.2571 C   0  0  0  0  0  0  0  0  0  0  0  0
   -1.2974    1.9601   -1.7587 O   0  0  0  0  0  0  0  0  0  0  0  0
    0.1165    3.7230   -1.8574 N   0  0  0  0  0  0  0  0  0  0  0  0
   -1.5870   -1.8628   -1.6433 C   0  0  2  0  0  0  0  0  0  0  0  0
   -1.9485   -0.7691   -2.4557 O   0  0  0  0  0  0  0  0  0  0  0  0
   -2.4085   -1.8496   -0.3465 C   0  0  0  0  0  0  0  0  0  0  0  0
   -3.8012   -1.6165   -0.7051 N   0  0  0  0  0  0  0  0  0  0  0  0
   -4.8112   -1.0499    0.4753 S   0  0  0  0  0  0  0  0  0  0  0  0
   -6.0700   -0.7504   -0.1801 O   0  0  0  0  0  0  0  0  0  0  0  0
   -4.7108   -1.9667    1.5981 O   0  0  0  0  0  0  0  0  0  0  0  0
   -4.0950    0.4980    1.0125 C   0  0  0  0  0  0  0  0  0  0  0  0
   -4.1058    1.5887    0.1466 C   0  0  0  0  0  0  0  0  0  0  0  0
   -3.5310    2.7860    0.5560 C   0  0  0  0  0  0  0  0  0  0  0  0
   -2.9578    2.8878    1.8224 C   0  0  0  0  0  0  0  0  0  0  0  0
   -2.9510    1.7909    2.6810 C   0  0  0  0  0  0  0  0  0  0  0  0
   -3.5187    0.5855    2.2760 C   0  0  0  0  0  0  0  0  0  0  0  0
    0.3984   -1.7265   -2.3702 H   0  0  0  0  0  0  0  0  0  0  0  0
   -0.1817   -3.5351    0.0344 H   0  0  0  0  0  0  0  0  0  0  0  0
    0.4517   -3.9669   -1.5487 H   0  0  0  0  0  0  0  0  0  0  0  0
    1.3229   -3.3644    1.8158 H   0  0  0  0  0  0  0  0  0  0  0  0
    3.4657   -2.5157    2.7570 H   0  0  0  0  0  0  0  0  0  0  0  0
    4.8751   -1.6882   -1.1992 H   0  0  0  0  0  0  0  0  0  0  0  0
    2.7516   -2.5156   -2.1427 H   0  0  0  0  0  0  0  0  0  0  0  0
    5.3815    0.2083    0.0745 H   0  0  0  0  0  0  0  0  0  0  0  0
    6.3869    0.3454    1.5211 H   0  0  0  0  0  0  0  0  0  0  0  0
    3.3640    0.1198    1.7417 H   0  0  0  0  0  0  0  0  0  0  0  0
    4.4687    0.7309    2.9535 H   0  0  0  0  0  0  0  0  0  0  0  0
    3.1179    2.5562    1.9287 H   0  0  0  0  0  0  0  0  0  0  0  0
    4.8483    2.8071    1.6693 H   0  0  0  0  0  0  0  0  0  0  0  0
    2.6792    1.9853   -1.6826 H   0  0  0  0  0  0  0  0  0  0  0  0
    1.7658    0.9560    0.8544 H   0  0  0  0  0  0  0  0  0  0  0  0
    0.1898   -0.7523    0.3913 H   0  0  0  0  0  0  0  0  0  0  0  0
   -0.5263    1.7015    0.6439 H   0  0  0  0  0  0  0  0  0  0  0  0
    0.5123    3.1427    0.6468 H   0  0  0  0  0  0  0  0  0  0  0  0
    0.9858    4.1209   -1.5333 H   0  0  0  0  0  0  0  0  0  0  0  0
   -0.1578    3.8981   -2.8137 H   0  0  0  0  0  0  0  0  0  0  0  0
   -1.8544   -2.7580   -2.2182 H   0  0  0  0  0  0  0  0  0  0  0  0
   -1.6327    0.0648   -2.0539 H   0  0  0  0  0  0  0  0  0  0  0  0
   -2.3300   -2.7982    0.1930 H   0  0  0  0  0  0  0  0  0  0  0  0
   -2.0326   -1.0466    0.3092 H   0  0  0  0  0  0  0  0  0  0  0  0
   -3.8728   -1.0630   -1.5587 H   0  0  0  0  0  0  0  0  0  0  0  0
   -4.5682    1.5057   -0.8334 H   0  0  0  0  0  0  0  0  0  0  0  0
   -3.5324    3.6396   -0.1159 H   0  0  0  0  0  0  0  0  0  0  0  0
   -2.5197    3.8298    2.1439 H   0  0  0  0  0  0  0  0  0  0  0  0
   -2.5122    1.8756    3.6718 H   0  0  0  0  0  0  0  0  0  0  0  0
   -3.5396   -0.2824    2.9287 H   0  0  0  0  0  0  0  0  0  0  0  0
  1 37  1  6  0  0  0
  1  2  1  0  0  0  0
  1 19  1  0  0  0  0
  2  3  1  0  0  0  0
  2 38  1  0  0  0  0
  3  4  2  0  0  0  0
  4  5  1  0  0  0  0
  4 40  1  0  0  0  0
  5 41  1  0  0  0  0
  6  9  1  0  0  0  0
  6  5  2  0  0  0  0
  7  6  1  0  0  0  0
  8  7  2  0  0  0  0
  8  3  1  0  0  0  0
 10  9  1  0  0  0  0
 10 45  1  0  0  0  0
 10 11  1  0  0  0  0
 11 47  1  0  0  0  0
 12 49  1  0  0  0  0
 12 11  1  0  0  0  0
 12 48  1  0  0  0  0
 13 12  1  0  0  0  0
 14 13  2  0  0  0  0
 15 16  1  0  0  0  0
 15 13  1  0  0  0  0
 16 20  1  0  0  0  0
 16 51  1  1  0  0  0
 17 19  1  0  0  0  0
 17 16  1  0  0  0  0
 18 17  2  0  0  0  0
 19 52  1  0  0  0  0
 20 53  1  0  0  0  0
 20 54  1  0  0  0  0
 21 20  1  0  0  0  0
 22 21  2  0  0  0  0
 23 55  1  0  0  0  0
 23 21  1  0  0  0  0
 24 57  1  6  0  0  0
 24  1  1  0  0  0  0
 24 26  1  0  0  0  0
 25 58  1  0  0  0  0
 25 24  1  0  0  0  0
 26 59  1  0  0  0  0
 26 60  1  0  0  0  0
 27 26  1  0  0  0  0
 27 28  1  0  0  0  0
 28 31  1  0  0  0  0
 28 30  2  0  0  0  0
 29 28  2  0  0  0  0
 31 36  2  0  0  0  0
 32 33  2  0  0  0  0
 32 31  1  0  0  0  0
 33 34  1  0  0  0  0
 34 64  1  0  0  0  0
 34 35  2  0  0  0  0
 35 65  1  0  0  0  0
 36 35  1  0  0  0  0
 36 66  1  0  0  0  0
 39  2  1  0  0  0  0
 42  7  1  0  0  0  0
 43  8  1  0  0  0  0
 44 10  1  0  0  0  0
 46 11  1  0  0  0  0
 50 15  1  0  0  0  0
 56 23  1  0  0  0  0
 61 27  1  0  0  0  0
 62 32  1  0  0  0  0
 63 33  1  0  0  0  0
M  END
