omegapdb_2f7p_21.log
 OpenBabel09261812563D

 34 35  0  0  1  0  0  0  0  0999 V2000
   -1.0133    0.2210   -0.9315 C   0  0  1  0  0  0  0  0  0  0  0  0
    0.4247    0.0963   -0.9896 N   0  0  0  0  0  0  0  0  0  0  0  0
    1.1162   -0.7692   -0.0425 C   0  0  0  0  0  0  0  0  0  0  0  0
    2.5910   -0.4266    0.0265 C   0  0  0  0  0  0  0  0  0  0  0  0
    3.0179    0.9018   -0.0236 C   0  0  0  0  0  0  0  0  0  0  0  0
    4.3697    1.2118    0.0781 C   0  0  0  0  0  0  0  0  0  0  0  0
    5.3132    0.1984    0.2303 C   0  0  0  0  0  0  0  0  0  0  0  0
    4.8961   -1.1279    0.2764 C   0  0  0  0  0  0  0  0  0  0  0  0
    3.5421   -1.4357    0.1713 C   0  0  0  0  0  0  0  0  0  0  0  0
   -1.9171   -1.0335   -0.9971 C   0  0  1  0  0  0  0  0  0  0  0  0
   -1.5048   -2.1373   -0.2042 O   0  0  0  0  0  0  0  0  0  0  0  0
   -3.2609   -0.5085   -0.4632 C   0  0  1  0  0  0  0  0  0  0  0  0
   -4.1218   -1.5504   -0.0584 O   0  0  0  0  0  0  0  0  0  0  0  0
   -2.8323    0.3603    0.7380 C   0  0  1  0  0  0  0  0  0  0  0  0
   -2.5460   -0.5080    1.8329 O   0  0  0  0  0  0  0  0  0  0  0  0
   -1.5080    1.0137    0.3137 C   0  0  2  0  0  0  0  0  0  0  0  0
   -1.6439    2.7708   -0.1360 S   0  0  0  0  0  0  0  0  0  0  0  0
   -1.2933    0.8062   -1.8196 H   0  0  0  0  0  0  0  0  0  0  0  0
    0.7354   -0.0989   -1.9341 H   0  0  0  0  0  0  0  0  0  0  0  0
    0.6707   -0.6087    0.9493 H   0  0  0  0  0  0  0  0  0  0  0  0
    0.9940   -1.8400   -0.2581 H   0  0  0  0  0  0  0  0  0  0  0  0
    2.2754    1.6850   -0.1561 H   0  0  0  0  0  0  0  0  0  0  0  0
    4.6895    2.2504    0.0371 H   0  0  0  0  0  0  0  0  0  0  0  0
    6.3700    0.4416    0.3085 H   0  0  0  0  0  0  0  0  0  0  0  0
    5.6259   -1.9262    0.3873 H   0  0  0  0  0  0  0  0  0  0  0  0
    3.2195   -2.4754    0.2004 H   0  0  0  0  0  0  0  0  0  0  0  0
   -1.9885   -1.4205   -2.0184 H   0  0  0  0  0  0  0  0  0  0  0  0
   -1.4809   -1.8178    0.7165 H   0  0  0  0  0  0  0  0  0  0  0  0
   -3.7655    0.1100   -1.2153 H   0  0  0  0  0  0  0  0  0  0  0  0
   -3.5682   -2.3500   -0.0669 H   0  0  0  0  0  0  0  0  0  0  0  0
   -3.5964    1.0915    1.0288 H   0  0  0  0  0  0  0  0  0  0  0  0
   -3.3302   -1.0790    1.8982 H   0  0  0  0  0  0  0  0  0  0  0  0
   -0.7956    0.9214    1.1374 H   0  0  0  0  0  0  0  0  0  0  0  0
   -1.9383    3.2355    1.0884 H   0  0  0  0  0  0  0  0  0  0  0  0
  1 10  1  6  0  0  0
  2  1  1  0  0  0  0
  2  3  1  0  0  0  0
  3  4  1  0  0  0  0
  3 20  1  0  0  0  0
  4  9  1  0  0  0  0
  5  4  2  0  0  0  0
  5  6  1  0  0  0  0
  6  7  2  0  0  0  0
  7  8  1  0  0  0  0
  7 24  1  0  0  0  0
  8 25  1  0  0  0  0
  9 26  1  0  0  0  0
  9  8  2  0  0  0  0
 10 12  1  1  0  0  0
 10 11  1  0  0  0  0
 11 28  1  0  0  0  0
 12 13  1  0  0  0  0
 12 14  1  1  0  0  0
 14 16  1  6  0  0  0
 14 31  1  0  0  0  0
 14 15  1  0  0  0  0
 15 32  1  0  0  0  0
 16  1  1  6  0  0  0
 16 33  1  0  0  0  0
 17 16  1  0  0  0  0
 17 34  1  0  0  0  0
 18  1  1  0  0  0  0
 19  2  1  0  0  0  0
 21  3  1  0  0  0  0
 22  5  1  0  0  0  0
 23  6  1  0  0  0  0
 27 10  1  0  0  0  0
 29 12  1  0  0  0  0
 30 13  1  0  0  0  0
M  END
