omegapdb_1gs5_09.log
 OpenBabel09261812563D

 24 23  0  0  1  0  0  0  0  0999 V2000
    0.9962   -0.6050   -0.5489 C   0  0  2  0  0  0  0  0  0  0  0  0
    2.2349   -0.4328    0.3135 C   0  0  0  0  0  0  0  0  0  0  0  0
    2.2849   -0.6556    1.5000 O   0  0  0  0  0  0  0  0  0  0  0  0
    3.2866   -0.0038   -0.3975 O   0  0  0  0  0  0  0  0  0  0  0  0
    0.6525    0.6885   -1.3109 C   0  0  0  0  0  0  0  0  0  0  0  0
    0.2170    1.8572   -0.4273 C   0  0  0  0  0  0  0  0  0  0  0  0
   -1.1274    1.7804    0.2889 C   0  0  0  0  0  0  0  0  0  0  0  0
   -1.3084    2.3062    1.3560 O   0  0  0  0  0  0  0  0  0  0  0  0
   -2.1584    1.1944   -0.3542 O   0  0  0  0  0  0  0  0  0  0  0  0
   -0.0537   -1.0875    0.3214 N   0  0  0  0  0  0  0  0  0  0  0  0
   -1.2426   -1.5229   -0.1650 C   0  0  0  0  0  0  0  0  0  0  0  0
   -1.5151   -1.4303   -1.3605 O   0  0  0  0  0  0  0  0  0  0  0  0
   -2.2295   -2.0370    0.8531 C   0  0  0  0  0  0  0  0  0  0  0  0
    1.2285   -1.3712   -1.3015 H   0  0  0  0  0  0  0  0  0  0  0  0
    4.0291    0.0742    0.2248 H   0  0  0  0  0  0  0  0  0  0  0  0
    1.5450    0.9853   -1.8707 H   0  0  0  0  0  0  0  0  0  0  0  0
   -0.1070    0.4391   -2.0568 H   0  0  0  0  0  0  0  0  0  0  0  0
    0.1656    2.7605   -1.0492 H   0  0  0  0  0  0  0  0  0  0  0  0
    0.9581    2.0653    0.3510 H   0  0  0  0  0  0  0  0  0  0  0  0
   -1.8727    0.6326   -1.0947 H   0  0  0  0  0  0  0  0  0  0  0  0
    0.1832   -1.1840    1.3003 H   0  0  0  0  0  0  0  0  0  0  0  0
   -2.8121   -2.8429    0.4035 H   0  0  0  0  0  0  0  0  0  0  0  0
   -2.9112   -1.2159    1.0994 H   0  0  0  0  0  0  0  0  0  0  0  0
   -1.7544   -2.3889    1.7728 H   0  0  0  0  0  0  0  0  0  0  0  0
  1 14  1  6  0  0  0
  1  2  1  0  0  0  0
  1 10  1  0  0  0  0
  2  3  2  0  0  0  0
  4 15  1  0  0  0  0
  4  2  1  0  0  0  0
  5  1  1  0  0  0  0
  5  6  1  0  0  0  0
  6  7  1  0  0  0  0
  6 19  1  0  0  0  0
  7  8  2  0  0  0  0
  9  7  1  0  0  0  0
 10 21  1  0  0  0  0
 11 10  1  0  0  0  0
 11 13  1  0  0  0  0
 12 11  2  0  0  0  0
 13 23  1  0  0  0  0
 13 24  1  0  0  0  0
 16  5  1  0  0  0  0
 17  5  1  0  0  0  0
 18  6  1  0  0  0  0
 20  9  1  0  0  0  0
 22 13  1  0  0  0  0
M  END
