omegapdb_2byh_14.log
 OpenBabel09261812563D

 40 42  0  0  0  0  0  0  0  0999 V2000
   -7.6708   -0.4149   -0.2028 O   0  0  0  0  0  0  0  0  0  0  0  0
   -6.7071   -1.0218    0.2251 C   0  0  0  0  0  0  0  0  0  0  0  0
   -6.8718   -2.3788    0.8768 C   0  0  0  0  0  0  0  0  0  0  0  0
   -5.3330   -0.4405    0.1174 C   0  0  0  0  0  0  0  0  0  0  0  0
   -4.1911   -1.0872    0.5907 C   0  0  0  0  0  0  0  0  0  0  0  0
   -2.9290   -0.5162    0.4760 C   0  0  0  0  0  0  0  0  0  0  0  0
   -2.8003    0.7384   -0.1275 C   0  0  0  0  0  0  0  0  0  0  0  0
   -3.9426    1.3952   -0.6075 C   0  0  0  0  0  0  0  0  0  0  0  0
   -5.1892    0.8123   -0.4858 C   0  0  0  0  0  0  0  0  0  0  0  0
   -1.5727    1.4046   -0.2810 N   0  0  0  0  0  0  0  0  0  0  0  0
   -0.3122    0.9704    0.0632 C   0  0  0  0  0  0  0  0  0  0  0  0
   -0.0822   -0.1263    0.5453 O   0  0  0  0  0  0  0  0  0  0  0  0
    0.7581    1.9625   -0.2016 C   0  0  0  0  0  0  0  0  0  0  0  0
    0.6514    3.3497   -0.4764 C   0  0  0  0  0  0  0  0  0  0  0  0
    1.8311    3.9258   -0.6044 N   0  0  0  0  0  0  0  0  0  0  0  0
    2.7038    2.9251   -0.4107 N   0  0  0  0  0  0  0  0  0  0  0  0
    2.1277    1.7199   -0.1675 C   0  0  0  0  0  0  0  0  0  0  0  0
    2.9553    0.5189    0.0407 C   0  0  0  0  0  0  0  0  0  0  0  0
    2.6526   -0.6854   -0.6025 C   0  0  0  0  0  0  0  0  0  0  0  0
    3.4670   -1.7931   -0.4747 C   0  0  0  0  0  0  0  0  0  0  0  0
    3.0771   -3.2666   -1.2976 Cl  0  0  0  0  0  0  0  0  0  0  0  0
    4.6207   -1.7280    0.3210 C   0  0  0  0  0  0  0  0  0  0  0  0
    5.3919   -2.8314    0.4163 O   0  0  0  0  0  0  0  0  0  0  0  0
    4.9212   -0.5445    0.9853 C   0  0  0  0  0  0  0  0  0  0  0  0
    4.0957    0.5673    0.8541 C   0  0  0  0  0  0  0  0  0  0  0  0
    4.4716    1.6876    1.5367 O   0  0  0  0  0  0  0  0  0  0  0  0
   -7.9310   -2.6401    0.8751 H   0  0  0  0  0  0  0  0  0  0  0  0
   -6.3065   -3.1437    0.3327 H   0  0  0  0  0  0  0  0  0  0  0  0
   -6.5009   -2.3647    1.9077 H   0  0  0  0  0  0  0  0  0  0  0  0
   -4.2713   -2.0627    1.0636 H   0  0  0  0  0  0  0  0  0  0  0  0
   -2.0499   -1.0278    0.8427 H   0  0  0  0  0  0  0  0  0  0  0  0
   -3.8447    2.3718   -1.0789 H   0  0  0  0  0  0  0  0  0  0  0  0
   -6.0797    1.3128   -0.8545 H   0  0  0  0  0  0  0  0  0  0  0  0
   -1.6299    2.2950   -0.7523 H   0  0  0  0  0  0  0  0  0  0  0  0
   -0.2393    3.9624   -0.5570 H   0  0  0  0  0  0  0  0  0  0  0  0
    3.6910    3.1017   -0.5335 H   0  0  0  0  0  0  0  0  0  0  0  0
    1.7608   -0.7557   -1.2152 H   0  0  0  0  0  0  0  0  0  0  0  0
    6.1390   -2.6462    1.0000 H   0  0  0  0  0  0  0  0  0  0  0  0
    5.7924   -0.4698    1.6309 H   0  0  0  0  0  0  0  0  0  0  0  0
    3.7001    2.2574    1.6661 H   0  0  0  0  0  0  0  0  0  0  0  0
  1  2  2  0  0  0  0
  2  3  1  0  0  0  0
  3 29  1  0  0  0  0
  4  2  1  0  0  0  0
  4  5  2  0  0  0  0
  5 30  1  0  0  0  0
  6  5  1  0  0  0  0
  6 31  1  0  0  0  0
  7  6  2  0  0  0  0
  8  9  2  0  0  0  0
  8  7  1  0  0  0  0
  9  4  1  0  0  0  0
 10  7  1  0  0  0  0
 10 11  1  0  0  0  0
 11 12  2  0  0  0  0
 13 17  2  0  0  0  0
 13 11  1  0  0  0  0
 14 13  1  0  0  0  0
 15 14  2  0  0  0  0
 15 16  1  0  0  0  0
 16 17  1  0  0  0  0
 17 18  1  0  0  0  0
 18 25  2  0  0  0  0
 19 20  2  0  0  0  0
 19 18  1  0  0  0  0
 20 22  1  0  0  0  0
 21 20  1  0  0  0  0
 22 23  1  0  0  0  0
 22 24  2  0  0  0  0
 23 38  1  0  0  0  0
 24 39  1  0  0  0  0
 25 24  1  0  0  0  0
 25 26  1  0  0  0  0
 26 40  1  0  0  0  0
 27  3  1  0  0  0  0
 28  3  1  0  0  0  0
 32  8  1  0  0  0  0
 33  9  1  0  0  0  0
 34 10  1  0  0  0  0
 35 14  1  0  0  0  0
 36 16  1  0  0  0  0
 37 19  1  0  0  0  0
M  END
