omegapdb_1gs5_03.log
 OpenBabel09261812563D

 24 23  0  0  1  0  0  0  0  0999 V2000
    0.7848    0.6481   -0.5526 C   0  0  2  0  0  0  0  0  0  0  0  0
    0.6648    2.0244    0.0701 C   0  0  0  0  0  0  0  0  0  0  0  0
    1.0765    2.3274    1.1668 O   0  0  0  0  0  0  0  0  0  0  0  0
    0.0189    2.8841   -0.7300 O   0  0  0  0  0  0  0  0  0  0  0  0
   -0.5986    0.0468   -0.8501 C   0  0  0  0  0  0  0  0  0  0  0  0
   -1.4517   -0.1123    0.4010 C   0  0  0  0  0  0  0  0  0  0  0  0
   -2.7826   -0.7547    0.1034 C   0  0  0  0  0  0  0  0  0  0  0  0
   -3.1823   -1.0854   -0.9863 O   0  0  0  0  0  0  0  0  0  0  0  0
   -3.5136   -0.9238    1.2246 O   0  0  0  0  0  0  0  0  0  0  0  0
    1.5743   -0.1667    0.3434 N   0  0  0  0  0  0  0  0  0  0  0  0
    2.2401   -1.2623   -0.1234 C   0  0  0  0  0  0  0  0  0  0  0  0
    2.1010   -1.6623   -1.2685 O   0  0  0  0  0  0  0  0  0  0  0  0
    3.1656   -1.9359    0.8685 C   0  0  0  0  0  0  0  0  0  0  0  0
    1.3146    0.7477   -1.5086 H   0  0  0  0  0  0  0  0  0  0  0  0
   -0.0216    3.7295   -0.2525 H   0  0  0  0  0  0  0  0  0  0  0  0
   -1.1144    0.6764   -1.5814 H   0  0  0  0  0  0  0  0  0  0  0  0
   -0.4343   -0.9255   -1.3222 H   0  0  0  0  0  0  0  0  0  0  0  0
   -1.6553    0.8521    0.8860 H   0  0  0  0  0  0  0  0  0  0  0  0
   -0.9389   -0.7239    1.1528 H   0  0  0  0  0  0  0  0  0  0  0  0
   -4.3461   -1.3361    0.9405 H   0  0  0  0  0  0  0  0  0  0  0  0
    1.8109    0.2461    1.2355 H   0  0  0  0  0  0  0  0  0  0  0  0
    3.0522   -3.0175    0.7715 H   0  0  0  0  0  0  0  0  0  0  0  0
    4.2007   -1.6864    0.6147 H   0  0  0  0  0  0  0  0  0  0  0  0
    2.9754   -1.6405    1.9043 H   0  0  0  0  0  0  0  0  0  0  0  0
  1 14  1  6  0  0  0
  1  2  1  0  0  0  0
  1 10  1  0  0  0  0
  2  3  2  0  0  0  0
  4 15  1  0  0  0  0
  4  2  1  0  0  0  0
  5  1  1  0  0  0  0
  5  6  1  0  0  0  0
  6 18  1  0  0  0  0
  6 19  1  0  0  0  0
  7  6  1  0  0  0  0
  7  9  1  0  0  0  0
  8  7  2  0  0  0  0
 10 21  1  0  0  0  0
 11 10  1  0  0  0  0
 11 13  1  0  0  0  0
 12 11  2  0  0  0  0
 13 24  1  0  0  0  0
 16  5  1  0  0  0  0
 17  5  1  0  0  0  0
 20  9  1  0  0  0  0
 22 13  1  0  0  0  0
 23 13  1  0  0  0  0
M  END
