omegapdb_1m5f_12.log
 OpenBabel09261812563D

 25 25  0  0  1  0  0  0  0  0999 V2000
    0.7765   -2.1986   -1.1109 O   0  0  0  0  0  0  0  0  0  0  0  0
    1.6821   -1.8017   -0.1882 C   0  0  0  0  0  0  0  0  0  0  0  0
    2.3862   -2.5727    0.4080 O   0  0  0  0  0  0  0  0  0  0  0  0
    1.7266   -0.3184   -0.0635 C   0  0  0  0  0  0  0  0  0  0  0  0
    2.8561    0.2263    0.3097 N   0  0  0  0  0  0  0  0  0  0  0  0
    2.6275    1.5726    0.3165 O   0  0  0  0  0  0  0  0  0  0  0  0
    1.3549    1.8249   -0.0481 C   0  0  0  0  0  0  0  0  0  0  0  0
    0.7134    0.6566   -0.3169 C   0  0  0  0  0  0  0  0  0  0  0  0
   -0.7207    0.4542   -0.6910 C   0  0  0  0  0  0  0  0  0  0  0  0
   -1.5747    0.0320    0.5241 C   0  0  2  0  0  0  0  0  0  0  0  0
   -1.0882   -1.2117    1.0844 N   0  0  0  0  0  0  0  0  0  0  0  0
   -3.0376   -0.0426    0.1013 C   0  0  0  0  0  0  0  0  0  0  0  0
   -3.6864   -1.0581    0.0284 O   0  0  0  0  0  0  0  0  0  0  0  0
   -3.5398    1.1679   -0.2128 O   0  0  0  0  0  0  0  0  0  0  0  0
    0.9458    3.2555   -0.0700 C   0  0  0  0  0  0  0  0  0  0  0  0
    0.8415   -3.1679   -1.1355 H   0  0  0  0  0  0  0  0  0  0  0  0
   -0.7989   -0.3194   -1.4624 H   0  0  0  0  0  0  0  0  0  0  0  0
   -1.1334    1.3775   -1.1111 H   0  0  0  0  0  0  0  0  0  0  0  0
   -1.4903    0.8182    1.2842 H   0  0  0  0  0  0  0  0  0  0  0  0
   -1.5311   -1.3834    1.9822 H   0  0  0  0  0  0  0  0  0  0  0  0
   -1.3779   -1.9761    0.4789 H   0  0  0  0  0  0  0  0  0  0  0  0
   -4.4596    1.0197   -0.4894 H   0  0  0  0  0  0  0  0  0  0  0  0
    1.0033    3.6914    0.9324 H   0  0  0  0  0  0  0  0  0  0  0  0
    1.6024    3.8347   -0.7265 H   0  0  0  0  0  0  0  0  0  0  0  0
   -0.0810    3.3520   -0.4314 H   0  0  0  0  0  0  0  0  0  0  0  0
  1  2  1  0  0  0  0
  2  4  1  0  0  0  0
  2  3  2  0  0  0  0
  4  5  2  0  0  0  0
  5  6  1  0  0  0  0
  7  6  1  0  0  0  0
  8  4  1  0  0  0  0
  8  7  2  0  0  0  0
  9  8  1  0  0  0  0
  9 10  1  0  0  0  0
 10 11  1  0  0  0  0
 10 19  1  1  0  0  0
 11 20  1  0  0  0  0
 12 10  1  0  0  0  0
 13 12  2  0  0  0  0
 14 12  1  0  0  0  0
 15  7  1  0  0  0  0
 15 23  1  0  0  0  0
 16  1  1  0  0  0  0
 17  9  1  0  0  0  0
 18  9  1  0  0  0  0
 21 11  1  0  0  0  0
 22 14  1  0  0  0  0
 24 15  1  0  0  0  0
 25 15  1  0  0  0  0
M  END
