omegapdb_1xom_05.log
 OpenBabel09261812563D

 50 52  0  0  1  0  0  0  0  0999 V2000
    6.2416   -0.5310    0.3363 O   0  0  0  0  0  0  0  0  0  0  0  0
    5.4336   -1.5311   -0.0747 C   0  0  0  0  0  0  0  0  0  0  0  0
    5.8559   -2.6305   -0.3422 O   0  0  0  0  0  0  0  0  0  0  0  0
    3.9877   -1.0988   -0.1541 C   0  0  1  0  0  0  0  0  0  0  0  0
    3.4618   -0.6377    1.2142 C   0  0  0  0  0  0  0  0  0  0  0  0
    1.9918   -0.2280    1.1237 C   0  0  0  0  0  0  0  0  0  0  0  0
    1.7406    0.8749    0.0628 C   0  0  2  0  0  0  0  0  0  0  0  0
    2.3285    0.4229   -1.2991 C   0  0  0  0  0  0  0  0  0  0  0  0
    3.7977    0.0115   -1.2002 C   0  0  0  0  0  0  0  0  0  0  0  0
    2.4775    2.0831    0.4894 C   0  0  0  0  0  0  0  0  0  0  0  0
    3.0809    3.0119    0.8249 N   0  0  0  0  0  0  0  0  0  0  0  0
    0.2460    1.1881   -0.0525 C   0  0  0  0  0  0  0  0  0  0  0  0
   -0.2902    2.4308    0.2576 C   0  0  0  0  0  0  0  0  0  0  0  0
   -1.6600    2.6770    0.1429 C   0  0  0  0  0  0  0  0  0  0  0  0
   -2.5256    1.6756   -0.2830 C   0  0  0  0  0  0  0  0  0  0  0  0
   -3.8671    1.8124   -0.4222 O   0  0  0  0  0  0  0  0  0  0  0  0
   -4.4288    3.0672   -0.1004 C   0  0  0  0  0  0  0  0  0  0  0  0
   -1.9920    0.4117   -0.6029 C   0  0  0  0  0  0  0  0  0  0  0  0
   -0.6321    0.1859   -0.4857 C   0  0  0  0  0  0  0  0  0  0  0  0
   -2.8167   -0.5714   -1.0807 O   0  0  0  0  0  0  0  0  0  0  0  0
   -3.2295   -1.5434   -0.1229 C   0  0  0  0  0  0  0  0  0  0  0  0
   -4.2919   -1.0660    0.8673 C   0  0  0  0  0  0  0  0  0  0  0  0
   -4.8545   -2.3857    1.3998 C   0  0  0  0  0  0  0  0  0  0  0  0
   -4.8982   -3.3150    0.1628 C   0  0  0  0  0  0  0  0  0  0  0  0
   -3.8997   -2.7103   -0.8531 C   0  0  0  0  0  0  0  0  0  0  0  0
    7.1402   -0.8999    0.3516 H   0  0  0  0  0  0  0  0  0  0  0  0
    3.4350   -1.9912   -0.4722 H   0  0  0  0  0  0  0  0  0  0  0  0
    4.0675    0.2055    1.5682 H   0  0  0  0  0  0  0  0  0  0  0  0
    3.5697   -1.4425    1.9508 H   0  0  0  0  0  0  0  0  0  0  0  0
    1.3822   -1.0973    0.8461 H   0  0  0  0  0  0  0  0  0  0  0  0
    1.6270    0.1196    2.0964 H   0  0  0  0  0  0  0  0  0  0  0  0
    2.2013    1.2275   -2.0314 H   0  0  0  0  0  0  0  0  0  0  0  0
    1.7332   -0.4274   -1.6536 H   0  0  0  0  0  0  0  0  0  0  0  0
    4.1450   -0.3327   -2.1814 H   0  0  0  0  0  0  0  0  0  0  0  0
    4.4142    0.8763   -0.9251 H   0  0  0  0  0  0  0  0  0  0  0  0
    0.3572    3.2367    0.5928 H   0  0  0  0  0  0  0  0  0  0  0  0
   -2.0369    3.6632    0.3926 H   0  0  0  0  0  0  0  0  0  0  0  0
   -4.2472    3.3307    0.9496 H   0  0  0  0  0  0  0  0  0  0  0  0
   -5.5021    2.9670   -0.2679 H   0  0  0  0  0  0  0  0  0  0  0  0
   -4.0330    3.8610   -0.7467 H   0  0  0  0  0  0  0  0  0  0  0  0
   -0.2723   -0.8036   -0.7599 H   0  0  0  0  0  0  0  0  0  0  0  0
   -2.3430   -1.8918    0.4314 H   0  0  0  0  0  0  0  0  0  0  0  0
   -5.0505   -0.5053    0.3087 H   0  0  0  0  0  0  0  0  0  0  0  0
   -3.8926   -0.4089    1.6471 H   0  0  0  0  0  0  0  0  0  0  0  0
   -5.8323   -2.2696    1.8771 H   0  0  0  0  0  0  0  0  0  0  0  0
   -4.1752   -2.7974    2.1570 H   0  0  0  0  0  0  0  0  0  0  0  0
   -5.9060   -3.3408   -0.2642 H   0  0  0  0  0  0  0  0  0  0  0  0
   -4.6436   -4.3460    0.4273 H   0  0  0  0  0  0  0  0  0  0  0  0
   -3.1700   -3.4345   -1.2273 H   0  0  0  0  0  0  0  0  0  0  0  0
   -4.4208   -2.2949   -1.7224 H   0  0  0  0  0  0  0  0  0  0  0  0
  1 26  1  0  0  0  0
  2  1  1  0  0  0  0
  3  2  2  0  0  0  0
  4 27  1  6  0  0  0
  4  2  1  0  0  0  0
  4  5  1  0  0  0  0
  5 28  1  0  0  0  0
  5 29  1  0  0  0  0
  6  5  1  0  0  0  0
  6 31  1  0  0  0  0
  7 10  1  1  0  0  0
  7  6  1  0  0  0  0
  8  9  1  0  0  0  0
  8  7  1  0  0  0  0
  9 35  1  0  0  0  0
  9  4  1  0  0  0  0
 10 11  3  0  0  0  0
 12  7  1  0  0  0  0
 12 13  2  0  0  0  0
 13 36  1  0  0  0  0
 14 13  1  0  0  0  0
 14 37  1  0  0  0  0
 15 14  2  0  0  0  0
 16 15  1  0  0  0  0
 16 17  1  0  0  0  0
 17 38  1  0  0  0  0
 18 19  2  0  0  0  0
 18 15  1  0  0  0  0
 19 12  1  0  0  0  0
 20 18  1  0  0  0  0
 20 21  1  0  0  0  0
 21 42  1  0  0  0  0
 21 22  1  0  0  0  0
 22 23  1  0  0  0  0
 22 44  1  0  0  0  0
 23 45  1  0  0  0  0
 23 46  1  0  0  0  0
 24 48  1  0  0  0  0
 24 23  1  0  0  0  0
 25 21  1  0  0  0  0
 25 24  1  0  0  0  0
 30  6  1  0  0  0  0
 32  8  1  0  0  0  0
 33  8  1  0  0  0  0
 34  9  1  0  0  0  0
 39 17  1  0  0  0  0
 40 17  1  0  0  0  0
 41 19  1  0  0  0  0
 43 22  1  0  0  0  0
 47 24  1  0  0  0  0
 49 25  1  0  0  0  0
 50 25  1  0  0  0  0
M  END
