omegapdb_1xom_21.log
 OpenBabel09261812563D

 50 52  0  0  1  0  0  0  0  0999 V2000
   -5.3729    2.4885   -0.3239 O   0  0  0  0  0  0  0  0  0  0  0  0
   -5.0087    1.1944   -0.1611 C   0  0  0  0  0  0  0  0  0  0  0  0
   -5.6034    0.4991    0.6183 O   0  0  0  0  0  0  0  0  0  0  0  0
   -3.7868    0.7552   -0.9640 C   0  0  1  0  0  0  0  0  0  0  0  0
   -2.5132    1.2596   -0.2373 C   0  0  0  0  0  0  0  0  0  0  0  0
   -2.0827    0.2728    0.8486 C   0  0  0  0  0  0  0  0  0  0  0  0
   -1.6557   -1.1081    0.2545 C   0  0  2  0  0  0  0  0  0  0  0  0
   -2.3299   -1.3102   -1.1350 C   0  0  0  0  0  0  0  0  0  0  0  0
   -3.7591   -0.7742   -1.1406 C   0  0  0  0  0  0  0  0  0  0  0  0
   -2.1729   -2.1580    1.1565 C   0  0  0  0  0  0  0  0  0  0  0  0
   -2.5954   -2.9879    1.8435 N   0  0  0  0  0  0  0  0  0  0  0  0
   -0.1391   -1.2769    0.1112 C   0  0  0  0  0  0  0  0  0  0  0  0
    0.4598   -2.5274    0.2044 C   0  0  0  0  0  0  0  0  0  0  0  0
    1.8305   -2.6887    0.0003 C   0  0  0  0  0  0  0  0  0  0  0  0
    2.6332   -1.5957   -0.3084 C   0  0  0  0  0  0  0  0  0  0  0  0
    3.9706   -1.6540   -0.5416 O   0  0  0  0  0  0  0  0  0  0  0  0
    4.5879   -2.9231   -0.4838 C   0  0  0  0  0  0  0  0  0  0  0  0
    2.0402   -0.3210   -0.3964 C   0  0  0  0  0  0  0  0  0  0  0  0
    0.6770   -0.1812   -0.1904 C   0  0  0  0  0  0  0  0  0  0  0  0
    2.7686    0.7806   -0.7449 O   0  0  0  0  0  0  0  0  0  0  0  0
    3.7407    1.2436    0.2130 C   0  0  0  0  0  0  0  0  0  0  0  0
    3.0594    1.7882    1.4673 C   0  0  0  0  0  0  0  0  0  0  0  0
    2.4780    3.1484    1.0321 C   0  0  0  0  0  0  0  0  0  0  0  0
    3.3030    3.5832   -0.2088 C   0  0  0  0  0  0  0  0  0  0  0  0
    4.3662    2.4860   -0.4057 C   0  0  0  0  0  0  0  0  0  0  0  0
   -4.8199    2.9066   -0.9983 H   0  0  0  0  0  0  0  0  0  0  0  0
   -3.8339    1.2395   -1.9496 H   0  0  0  0  0  0  0  0  0  0  0  0
   -2.6924    2.2439    0.2120 H   0  0  0  0  0  0  0  0  0  0  0  0
   -1.7139    1.3972   -0.9741 H   0  0  0  0  0  0  0  0  0  0  0  0
   -2.9280    0.1255    1.5301 H   0  0  0  0  0  0  0  0  0  0  0  0
   -1.2638    0.6811    1.4486 H   0  0  0  0  0  0  0  0  0  0  0  0
   -1.7192   -0.7950   -1.8862 H   0  0  0  0  0  0  0  0  0  0  0  0
   -2.3081   -2.3741   -1.3920 H   0  0  0  0  0  0  0  0  0  0  0  0
   -4.2661   -1.0525   -2.0702 H   0  0  0  0  0  0  0  0  0  0  0  0
   -4.3287   -1.2310   -0.3230 H   0  0  0  0  0  0  0  0  0  0  0  0
   -0.1381   -3.4005    0.4542 H   0  0  0  0  0  0  0  0  0  0  0  0
    2.2591   -3.6818    0.0842 H   0  0  0  0  0  0  0  0  0  0  0  0
    5.6428   -2.7546   -0.7050 H   0  0  0  0  0  0  0  0  0  0  0  0
    4.1648   -3.6073   -1.2301 H   0  0  0  0  0  0  0  0  0  0  0  0
    4.4926   -3.3716    0.5134 H   0  0  0  0  0  0  0  0  0  0  0  0
    0.2769    0.8253   -0.2781 H   0  0  0  0  0  0  0  0  0  0  0  0
    4.4581    0.4417    0.4138 H   0  0  0  0  0  0  0  0  0  0  0  0
    2.3071    1.1011    1.8690 H   0  0  0  0  0  0  0  0  0  0  0  0
    3.8241    1.9211    2.2426 H   0  0  0  0  0  0  0  0  0  0  0  0
    1.4193    3.0450    0.7701 H   0  0  0  0  0  0  0  0  0  0  0  0
    2.5309    3.8829    1.8419 H   0  0  0  0  0  0  0  0  0  0  0  0
    2.6592    3.6381   -1.0917 H   0  0  0  0  0  0  0  0  0  0  0  0
    3.7581    4.5701   -0.0794 H   0  0  0  0  0  0  0  0  0  0  0  0
    4.6342    2.3215   -1.4532 H   0  0  0  0  0  0  0  0  0  0  0  0
    5.2835    2.7266    0.1453 H   0  0  0  0  0  0  0  0  0  0  0  0
  1  2  1  0  0  0  0
  2  3  2  0  0  0  0
  4 27  1  6  0  0  0
  4  5  1  0  0  0  0
  4  2  1  0  0  0  0
  5 28  1  0  0  0  0
  5  6  1  0  0  0  0
  6 31  1  0  0  0  0
  6 30  1  0  0  0  0
  7  6  1  0  0  0  0
  7 10  1  1  0  0  0
  8  7  1  0  0  0  0
  9  8  1  0  0  0  0
  9  4  1  0  0  0  0
  9 35  1  0  0  0  0
 10 11  3  0  0  0  0
 12 13  1  0  0  0  0
 12  7  1  0  0  0  0
 13 36  1  0  0  0  0
 14 37  1  0  0  0  0
 14 13  2  0  0  0  0
 15 14  1  0  0  0  0
 16 17  1  0  0  0  0
 16 15  1  0  0  0  0
 17 40  1  0  0  0  0
 18 15  2  0  0  0  0
 18 19  1  0  0  0  0
 19 12  2  0  0  0  0
 20 18  1  0  0  0  0
 20 21  1  0  0  0  0
 21 42  1  0  0  0  0
 21 22  1  0  0  0  0
 22 43  1  0  0  0  0
 22 44  1  0  0  0  0
 23 22  1  0  0  0  0
 23 46  1  0  0  0  0
 24 48  1  0  0  0  0
 24 23  1  0  0  0  0
 25 24  1  0  0  0  0
 25 50  1  0  0  0  0
 25 21  1  0  0  0  0
 26  1  1  0  0  0  0
 29  5  1  0  0  0  0
 32  8  1  0  0  0  0
 33  8  1  0  0  0  0
 34  9  1  0  0  0  0
 38 17  1  0  0  0  0
 39 17  1  0  0  0  0
 41 19  1  0  0  0  0
 45 23  1  0  0  0  0
 47 24  1  0  0  0  0
 49 25  1  0  0  0  0
M  END
