omegapdb_1xom_04.log
 OpenBabel09261812563D

 50 52  0  0  1  0  0  0  0  0999 V2000
    6.2035   -0.5465    0.2660 O   0  0  0  0  0  0  0  0  0  0  0  0
    5.3846   -1.5277   -0.1687 C   0  0  0  0  0  0  0  0  0  0  0  0
    5.7972   -2.6196   -0.4783 O   0  0  0  0  0  0  0  0  0  0  0  0
    3.9407   -1.0843   -0.2185 C   0  0  1  0  0  0  0  0  0  0  0  0
    3.4362   -0.6451    1.1647 C   0  0  0  0  0  0  0  0  0  0  0  0
    1.9683   -0.2235    1.1013 C   0  0  0  0  0  0  0  0  0  0  0  0
    1.7106    0.9002    0.0637 C   0  0  2  0  0  0  0  0  0  0  0  0
    2.2777    0.4698   -1.3136 C   0  0  0  0  0  0  0  0  0  0  0  0
    3.7452    0.0470   -1.2412 C   0  0  0  0  0  0  0  0  0  0  0  0
    2.4602    2.0963    0.5022 C   0  0  0  0  0  0  0  0  0  0  0  0
    3.0731    3.0154    0.8469 N   0  0  0  0  0  0  0  0  0  0  0  0
    0.2160    1.2228   -0.0217 C   0  0  0  0  0  0  0  0  0  0  0  0
   -0.3130    2.4491    0.3564 C   0  0  0  0  0  0  0  0  0  0  0  0
   -1.6856    2.6979    0.2800 C   0  0  0  0  0  0  0  0  0  0  0  0
   -2.5566    1.7183   -0.1805 C   0  0  0  0  0  0  0  0  0  0  0  0
   -3.9011    1.8644   -0.3042 O   0  0  0  0  0  0  0  0  0  0  0  0
   -4.4545    3.1152    0.0482 C   0  0  0  0  0  0  0  0  0  0  0  0
   -2.0318    0.4662   -0.5607 C   0  0  0  0  0  0  0  0  0  0  0  0
   -0.6705    0.2371   -0.4762 C   0  0  0  0  0  0  0  0  0  0  0  0
   -2.8446   -0.5073   -1.0731 O   0  0  0  0  0  0  0  0  0  0  0  0
   -3.6993   -1.1556   -0.1309 C   0  0  0  0  0  0  0  0  0  0  0  0
   -4.6812   -2.0508   -0.8844 C   0  0  0  0  0  0  0  0  0  0  0  0
   -5.0910   -3.1444    0.1280 C   0  0  0  0  0  0  0  0  0  0  0  0
   -4.1202   -2.9981    1.3287 C   0  0  0  0  0  0  0  0  0  0  0  0
   -2.9764   -2.1209    0.8089 C   0  0  0  0  0  0  0  0  0  0  0  0
    7.0998   -0.9210    0.2579 H   0  0  0  0  0  0  0  0  0  0  0  0
    3.3773   -1.9664   -0.5465 H   0  0  0  0  0  0  0  0  0  0  0  0
    3.5479   -1.4641    1.8850 H   0  0  0  0  0  0  0  0  0  0  0  0
    4.0527    0.1870    1.5261 H   0  0  0  0  0  0  0  0  0  0  0  0
    1.3475   -1.0826    0.8166 H   0  0  0  0  0  0  0  0  0  0  0  0
    1.6192    0.1095    2.0849 H   0  0  0  0  0  0  0  0  0  0  0  0
    2.1468    1.2885   -2.0295 H   0  0  0  0  0  0  0  0  0  0  0  0
    1.6729   -0.3701   -1.6763 H   0  0  0  0  0  0  0  0  0  0  0  0
    4.0774   -0.2812   -2.2330 H   0  0  0  0  0  0  0  0  0  0  0  0
    4.3713    0.9022   -0.9578 H   0  0  0  0  0  0  0  0  0  0  0  0
    0.3406    3.2395    0.7153 H   0  0  0  0  0  0  0  0  0  0  0  0
   -2.0586    3.6721    0.5782 H   0  0  0  0  0  0  0  0  0  0  0  0
   -4.0475    3.9214   -0.5749 H   0  0  0  0  0  0  0  0  0  0  0  0
   -4.2761    3.3491    1.1057 H   0  0  0  0  0  0  0  0  0  0  0  0
   -5.5277    3.0290   -0.1274 H   0  0  0  0  0  0  0  0  0  0  0  0
   -0.3220   -0.7445   -0.7880 H   0  0  0  0  0  0  0  0  0  0  0  0
   -4.2377   -0.3955    0.4499 H   0  0  0  0  0  0  0  0  0  0  0  0
   -5.5282   -1.4879   -1.2866 H   0  0  0  0  0  0  0  0  0  0  0  0
   -4.1427   -2.4836   -1.7353 H   0  0  0  0  0  0  0  0  0  0  0  0
   -6.1312   -3.0299    0.4490 H   0  0  0  0  0  0  0  0  0  0  0  0
   -5.0111   -4.1377   -0.3247 H   0  0  0  0  0  0  0  0  0  0  0  0
   -4.6237   -2.4911    2.1608 H   0  0  0  0  0  0  0  0  0  0  0  0
   -3.7704   -3.9623    1.7098 H   0  0  0  0  0  0  0  0  0  0  0  0
   -2.4135   -1.6184    1.6025 H   0  0  0  0  0  0  0  0  0  0  0  0
   -2.2705   -2.7146    0.2122 H   0  0  0  0  0  0  0  0  0  0  0  0
  2  1  1  0  0  0  0
  3  2  2  0  0  0  0
  4 27  1  6  0  0  0
  4  2  1  0  0  0  0
  4  5  1  0  0  0  0
  5 29  1  0  0  0  0
  5 28  1  0  0  0  0
  6  5  1  0  0  0  0
  6 31  1  0  0  0  0
  7 10  1  1  0  0  0
  7  6  1  0  0  0  0
  8  9  1  0  0  0  0
  8  7  1  0  0  0  0
  9 35  1  0  0  0  0
  9  4  1  0  0  0  0
 10 11  3  0  0  0  0
 12  7  1  0  0  0  0
 12 13  2  0  0  0  0
 13 36  1  0  0  0  0
 14 13  1  0  0  0  0
 14 37  1  0  0  0  0
 15 14  2  0  0  0  0
 16 15  1  0  0  0  0
 16 17  1  0  0  0  0
 17 39  1  0  0  0  0
 18 19  2  0  0  0  0
 18 15  1  0  0  0  0
 19 12  1  0  0  0  0
 20 18  1  0  0  0  0
 20 21  1  0  0  0  0
 21 42  1  0  0  0  0
 21 25  1  0  0  0  0
 22 21  1  0  0  0  0
 22 23  1  0  0  0  0
 23 45  1  0  0  0  0
 23 24  1  0  0  0  0
 24 48  1  0  0  0  0
 24 47  1  0  0  0  0
 25 24  1  0  0  0  0
 25 49  1  0  0  0  0
 26  1  1  0  0  0  0
 30  6  1  0  0  0  0
 32  8  1  0  0  0  0
 33  8  1  0  0  0  0
 34  9  1  0  0  0  0
 38 17  1  0  0  0  0
 40 17  1  0  0  0  0
 41 19  1  0  0  0  0
 43 22  1  0  0  0  0
 44 22  1  0  0  0  0
 46 23  1  0  0  0  0
 50 25  1  0  0  0  0
M  END
