omegapdb_1gs5_07.log
 OpenBabel09261812563D

 24 23  0  0  1  0  0  0  0  0999 V2000
    0.7807    0.8028   -0.9137 C   0  0  2  0  0  0  0  0  0  0  0  0
    0.9943    1.8668    0.1819 C   0  0  0  0  0  0  0  0  0  0  0  0
    0.9039    3.0335   -0.1108 O   0  0  0  0  0  0  0  0  0  0  0  0
    1.1921    1.4646    1.4323 O   0  0  0  0  0  0  0  0  0  0  0  0
   -0.7076    0.4239   -1.0242 C   0  0  0  0  0  0  0  0  0  0  0  0
   -1.3719   -0.1034    0.2455 C   0  0  0  0  0  0  0  0  0  0  0  0
   -2.8129   -0.4632   -0.0114 C   0  0  0  0  0  0  0  0  0  0  0  0
   -3.3582   -0.4697   -1.0898 O   0  0  0  0  0  0  0  0  0  0  0  0
   -3.4522   -0.8023    1.1243 O   0  0  0  0  0  0  0  0  0  0  0  0
    1.6983   -0.3468   -0.9065 N   0  0  0  0  0  0  0  0  0  0  0  0
    1.9132   -1.2519    0.0730 C   0  0  0  0  0  0  0  0  0  0  0  0
    1.4172   -1.1618    1.1997 O   0  0  0  0  0  0  0  0  0  0  0  0
    2.8089   -2.4171   -0.2759 C   0  0  0  0  0  0  0  0  0  0  0  0
    1.0310    1.3410   -1.8300 H   0  0  0  0  0  0  0  0  0  0  0  0
    1.2119    0.4768    1.4917 H   0  0  0  0  0  0  0  0  0  0  0  0
   -1.2403    1.3229   -1.3530 H   0  0  0  0  0  0  0  0  0  0  0  0
   -0.8186   -0.3109   -1.8286 H   0  0  0  0  0  0  0  0  0  0  0  0
   -1.3425    0.6341    1.0560 H   0  0  0  0  0  0  0  0  0  0  0  0
   -0.8676   -0.9923    0.6390 H   0  0  0  0  0  0  0  0  0  0  0  0
   -4.3616   -1.0244    0.8648 H   0  0  0  0  0  0  0  0  0  0  0  0
    2.1747   -0.5115   -1.7797 H   0  0  0  0  0  0  0  0  0  0  0  0
    2.2134   -3.3339   -0.2386 H   0  0  0  0  0  0  0  0  0  0  0  0
    3.2752   -2.3353   -1.2610 H   0  0  0  0  0  0  0  0  0  0  0  0
    3.5854   -2.4985    0.4882 H   0  0  0  0  0  0  0  0  0  0  0  0
  1 14  1  6  0  0  0
  1 10  1  0  0  0  0
  1  2  1  0  0  0  0
  2  4  1  0  0  0  0
  3  2  2  0  0  0  0
  4 15  1  0  0  0  0
  5  1  1  0  0  0  0
  5  6  1  0  0  0  0
  6 19  1  0  0  0  0
  6 18  1  0  0  0  0
  7  6  1  0  0  0  0
  7  9  1  0  0  0  0
  8  7  2  0  0  0  0
 10 11  1  0  0  0  0
 11 12  2  0  0  0  0
 13 22  1  0  0  0  0
 13 11  1  0  0  0  0
 13 24  1  0  0  0  0
 16  5  1  0  0  0  0
 17  5  1  0  0  0  0
 20  9  1  0  0  0  0
 21 10  1  0  0  0  0
 23 13  1  0  0  0  0
M  END
