omegapdb_1gs5_05.log
 OpenBabel09261812563D

 24 23  0  0  1  0  0  0  0  0999 V2000
    0.6916    0.4933   -0.2759 C   0  0  2  0  0  0  0  0  0  0  0  0
    0.6934    1.9807    0.0174 C   0  0  0  0  0  0  0  0  0  0  0  0
    1.4777    2.5379    0.7497 O   0  0  0  0  0  0  0  0  0  0  0  0
   -0.2955    2.6331   -0.6146 O   0  0  0  0  0  0  0  0  0  0  0  0
   -0.5343   -0.2163    0.3344 C   0  0  0  0  0  0  0  0  0  0  0  0
   -1.8275   -0.0026   -0.4422 C   0  0  0  0  0  0  0  0  0  0  0  0
   -2.9854   -0.7247    0.1981 C   0  0  0  0  0  0  0  0  0  0  0  0
   -2.9552   -1.3268    1.2444 O   0  0  0  0  0  0  0  0  0  0  0  0
   -4.1080   -0.6172   -0.5417 O   0  0  0  0  0  0  0  0  0  0  0  0
    1.9282   -0.0403    0.2456 N   0  0  0  0  0  0  0  0  0  0  0  0
    2.4261   -1.2165   -0.2245 C   0  0  0  0  0  0  0  0  0  0  0  0
    1.8261   -1.8830   -1.0552 O   0  0  0  0  0  0  0  0  0  0  0  0
    3.7592   -1.6461    0.3508 C   0  0  0  0  0  0  0  0  0  0  0  0
    0.6752    0.3474   -1.3636 H   0  0  0  0  0  0  0  0  0  0  0  0
   -0.2249    3.5645   -0.3449 H   0  0  0  0  0  0  0  0  0  0  0  0
   -0.6596    0.0862    1.3802 H   0  0  0  0  0  0  0  0  0  0  0  0
   -0.2983   -1.2839    0.3396 H   0  0  0  0  0  0  0  0  0  0  0  0
   -1.7301   -0.3653   -1.4729 H   0  0  0  0  0  0  0  0  0  0  0  0
   -2.0941    1.0571   -0.5197 H   0  0  0  0  0  0  0  0  0  0  0  0
   -4.7945   -1.1041   -0.0566 H   0  0  0  0  0  0  0  0  0  0  0  0
    2.4552    0.5521    0.8712 H   0  0  0  0  0  0  0  0  0  0  0  0
    4.1633   -0.9440    1.0855 H   0  0  0  0  0  0  0  0  0  0  0  0
    3.6372   -2.6255    0.8209 H   0  0  0  0  0  0  0  0  0  0  0  0
    4.4742   -1.7610   -0.4683 H   0  0  0  0  0  0  0  0  0  0  0  0
  1 14  1  6  0  0  0
  1  2  1  0  0  0  0
  1 10  1  0  0  0  0
  1  5  1  0  0  0  0
  2  3  2  0  0  0  0
  4 15  1  0  0  0  0
  4  2  1  0  0  0  0
  5 17  1  0  0  0  0
  5 16  1  0  0  0  0
  6  7  1  0  0  0  0
  6  5  1  0  0  0  0
  7  8  2  0  0  0  0
  9 20  1  0  0  0  0
  9  7  1  0  0  0  0
 10 21  1  0  0  0  0
 11 10  1  0  0  0  0
 11 13  1  0  0  0  0
 12 11  2  0  0  0  0
 13 23  1  0  0  0  0
 13 22  1  0  0  0  0
 18  6  1  0  0  0  0
 19  6  1  0  0  0  0
 24 13  1  0  0  0  0
M  END
