omegapdb_1z1r_03.log
 OpenBabel09261812563D

 66 68  0  0  1  0  0  0  0  0999 V2000
    0.1348   -0.1082    0.2460 C   0  0  2  0  0  0  0  0  0  0  0  0
    0.0341   -1.2753   -0.7599 C   0  0  0  0  0  0  0  0  0  0  0  0
   -1.2838   -2.0055   -0.6487 C   0  0  0  0  0  0  0  0  0  0  0  0
   -2.1724   -2.0466   -1.7248 C   0  0  0  0  0  0  0  0  0  0  0  0
   -3.4477   -2.5899   -1.5899 C   0  0  0  0  0  0  0  0  0  0  0  0
   -3.8656   -3.0630   -0.3486 C   0  0  0  0  0  0  0  0  0  0  0  0
   -2.9666   -3.1033    0.7146 C   0  0  0  0  0  0  0  0  0  0  0  0
   -1.6859   -2.5881    0.5568 C   0  0  0  0  0  0  0  0  0  0  0  0
   -5.1593   -3.4676   -0.1286 O   0  0  0  0  0  0  0  0  0  0  0  0
   -6.1390   -2.4262   -0.1819 C   0  0  0  0  0  0  0  0  0  0  0  0
   -5.8798   -1.2613    0.7812 C   0  0  0  0  0  0  0  0  0  0  0  0
   -5.0126   -0.1489    0.1883 C   0  0  0  0  0  0  0  0  0  0  0  0
   -4.5760    0.8755    1.2224 C   0  0  0  0  0  0  0  0  0  0  0  0
   -5.0353    0.9118    2.3497 O   0  0  0  0  0  0  0  0  0  0  0  0
   -3.5826    1.7494    0.8397 N   0  0  0  0  0  0  0  0  0  0  0  0
   -3.0364    1.9507   -0.4853 C   0  0  2  0  0  0  0  0  0  0  0  0
   -1.5988    1.4321   -0.6683 C   0  0  0  0  0  0  0  0  0  0  0  0
   -0.9923    1.7248   -1.7047 O   0  0  0  0  0  0  0  0  0  0  0  0
   -1.1147    0.6589    0.3095 N   0  0  0  0  0  0  0  0  0  0  0  0
   -3.1006    3.4156   -0.9283 C   0  0  0  0  0  0  0  0  0  0  0  0
   -2.2212    4.3019   -0.0585 C   0  0  0  0  0  0  0  0  0  0  0  0
   -1.8120    3.9387    1.0364 O   0  0  0  0  0  0  0  0  0  0  0  0
   -1.9568    5.5335   -0.5601 N   0  0  0  0  0  0  0  0  0  0  0  0
    1.3517    0.8286    0.0121 C   0  0  2  0  0  0  0  0  0  0  0  0
    1.6269    1.0628   -1.3491 O   0  0  0  0  0  0  0  0  0  0  0  0
    2.6517    0.3066    0.6168 C   0  0  0  0  0  0  0  0  0  0  0  0
    3.1094   -0.8535   -0.1407 N   0  0  0  0  0  0  0  0  0  0  0  0
    4.4711   -1.6487    0.3663 S   0  0  0  0  0  0  0  0  0  0  0  0
    4.2848   -1.9183    1.7820 O   0  0  0  0  0  0  0  0  0  0  0  0
    4.6995   -2.7011   -0.6070 O   0  0  0  0  0  0  0  0  0  0  0  0
    5.8126   -0.4849    0.2233 C   0  0  0  0  0  0  0  0  0  0  0  0
    6.1418    0.3181    1.3117 C   0  0  0  0  0  0  0  0  0  0  0  0
    7.1620    1.2548    1.1768 C   0  0  0  0  0  0  0  0  0  0  0  0
    7.8399    1.3777   -0.0328 C   0  0  0  0  0  0  0  0  0  0  0  0
    7.5085    0.5610   -1.1119 C   0  0  0  0  0  0  0  0  0  0  0  0
    6.4905   -0.3773   -0.9883 C   0  0  0  0  0  0  0  0  0  0  0  0
    0.2465   -0.5244    1.2535 H   0  0  0  0  0  0  0  0  0  0  0  0
    0.1533   -0.8785   -1.7723 H   0  0  0  0  0  0  0  0  0  0  0  0
    0.8820   -1.9439   -0.5781 H   0  0  0  0  0  0  0  0  0  0  0  0
   -1.8683   -1.6243   -2.6809 H   0  0  0  0  0  0  0  0  0  0  0  0
   -4.1395   -2.5981   -2.4287 H   0  0  0  0  0  0  0  0  0  0  0  0
   -3.2989   -3.5123    1.6646 H   0  0  0  0  0  0  0  0  0  0  0  0
   -0.9983   -2.6094    1.4014 H   0  0  0  0  0  0  0  0  0  0  0  0
   -7.0715   -2.9322    0.0801 H   0  0  0  0  0  0  0  0  0  0  0  0
   -6.2400   -2.0584   -1.2149 H   0  0  0  0  0  0  0  0  0  0  0  0
   -5.4185   -1.6508    1.6949 H   0  0  0  0  0  0  0  0  0  0  0  0
   -6.8395   -0.8339    1.0912 H   0  0  0  0  0  0  0  0  0  0  0  0
   -5.5648    0.3649   -0.6126 H   0  0  0  0  0  0  0  0  0  0  0  0
   -4.1180   -0.5658   -0.2818 H   0  0  0  0  0  0  0  0  0  0  0  0
   -3.2984    2.4282    1.5381 H   0  0  0  0  0  0  0  0  0  0  0  0
   -3.6300    1.3712   -1.1991 H   0  0  0  0  0  0  0  0  0  0  0  0
   -1.7339    0.5032    1.0924 H   0  0  0  0  0  0  0  0  0  0  0  0
   -4.1355    3.7716   -0.8626 H   0  0  0  0  0  0  0  0  0  0  0  0
   -2.7825    3.4825   -1.9727 H   0  0  0  0  0  0  0  0  0  0  0  0
   -2.1583    5.7735   -1.5171 H   0  0  0  0  0  0  0  0  0  0  0  0
   -1.3374    6.1322   -0.0347 H   0  0  0  0  0  0  0  0  0  0  0  0
    1.1164    1.7713    0.5320 H   0  0  0  0  0  0  0  0  0  0  0  0
    0.7884    1.3819   -1.7404 H   0  0  0  0  0  0  0  0  0  0  0  0
    3.3885    1.1235    0.5880 H   0  0  0  0  0  0  0  0  0  0  0  0
    2.5074    0.0063    1.6584 H   0  0  0  0  0  0  0  0  0  0  0  0
    3.1153   -0.6808   -1.1436 H   0  0  0  0  0  0  0  0  0  0  0  0
    5.6176    0.1861    2.2538 H   0  0  0  0  0  0  0  0  0  0  0  0
    7.4324    1.8838    2.0205 H   0  0  0  0  0  0  0  0  0  0  0  0
    8.6372    2.1095   -0.1336 H   0  0  0  0  0  0  0  0  0  0  0  0
    8.0485    0.6510   -2.0504 H   0  0  0  0  0  0  0  0  0  0  0  0
    6.2315   -1.0391   -1.8100 H   0  0  0  0  0  0  0  0  0  0  0  0
  1 19  1  0  0  0  0
  1 37  1  1  0  0  0
  2  3  1  0  0  0  0
  2 39  1  0  0  0  0
  2  1  1  0  0  0  0
  3  8  2  0  0  0  0
  4  5  2  0  0  0  0
  4  3  1  0  0  0  0
  5  6  1  0  0  0  0
  6  9  1  0  0  0  0
  6  7  2  0  0  0  0
  7 42  1  0  0  0  0
  8  7  1  0  0  0  0
  8 43  1  0  0  0  0
 10  9  1  0  0  0  0
 10 44  1  0  0  0  0
 10 11  1  0  0  0  0
 11 47  1  0  0  0  0
 11 46  1  0  0  0  0
 12 11  1  0  0  0  0
 12 13  1  0  0  0  0
 13 14  2  0  0  0  0
 15 13  1  0  0  0  0
 15 50  1  0  0  0  0
 16 51  1  6  0  0  0
 16 15  1  0  0  0  0
 17 16  1  0  0  0  0
 17 19  1  0  0  0  0
 18 17  2  0  0  0  0
 19 52  1  0  0  0  0
 20 53  1  0  0  0  0
 20 16  1  0  0  0  0
 20 21  1  0  0  0  0
 21 22  2  0  0  0  0
 23 21  1  0  0  0  0
 23 56  1  0  0  0  0
 24  1  1  0  0  0  0
 24 57  1  1  0  0  0
 24 26  1  0  0  0  0
 25 24  1  0  0  0  0
 26 60  1  0  0  0  0
 27 28  1  0  0  0  0
 27 26  1  0  0  0  0
 28 29  2  0  0  0  0
 30 28  2  0  0  0  0
 31 28  1  0  0  0  0
 31 32  2  0  0  0  0
 32 62  1  0  0  0  0
 33 32  1  0  0  0  0
 33 63  1  0  0  0  0
 34 33  2  0  0  0  0
 35 36  2  0  0  0  0
 35 34  1  0  0  0  0
 36 31  1  0  0  0  0
 38  2  1  0  0  0  0
 40  4  1  0  0  0  0
 41  5  1  0  0  0  0
 45 10  1  0  0  0  0
 48 12  1  0  0  0  0
 49 12  1  0  0  0  0
 54 20  1  0  0  0  0
 55 23  1  0  0  0  0
 58 25  1  0  0  0  0
 59 26  1  0  0  0  0
 61 27  1  0  0  0  0
 64 34  1  0  0  0  0
 65 35  1  0  0  0  0
 66 36  1  0  0  0  0
M  END
