omegapdb_2f7p_05.log
 OpenBabel09261812563D

 34 35  0  0  1  0  0  0  0  0999 V2000
   -0.9671    0.1930   -0.6681 C   0  0  1  0  0  0  0  0  0  0  0  0
    0.3767    0.2453   -0.1247 N   0  0  0  0  0  0  0  0  0  0  0  0
    1.4287    0.1283   -1.1372 C   0  0  0  0  0  0  0  0  0  0  0  0
    2.7888    0.0395   -0.4888 C   0  0  0  0  0  0  0  0  0  0  0  0
    3.1355   -1.1010    0.2400 C   0  0  0  0  0  0  0  0  0  0  0  0
    4.3728   -1.1918    0.8640 C   0  0  0  0  0  0  0  0  0  0  0  0
    5.2815   -0.1388    0.7669 C   0  0  0  0  0  0  0  0  0  0  0  0
    4.9451    0.9996    0.0440 C   0  0  0  0  0  0  0  0  0  0  0  0
    3.7020    1.0870   -0.5803 C   0  0  0  0  0  0  0  0  0  0  0  0
   -1.4158   -1.2885   -0.8520 C   0  0  1  0  0  0  0  0  0  0  0  0
   -0.7120   -2.1127    0.0549 O   0  0  0  0  0  0  0  0  0  0  0  0
   -2.9405   -1.3039   -0.5073 C   0  0  1  0  0  0  0  0  0  0  0  0
   -3.1734   -2.0107    0.6907 O   0  0  0  0  0  0  0  0  0  0  0  0
   -3.3266    0.1724   -0.2539 C   0  0  1  0  0  0  0  0  0  0  0  0
   -4.4268    0.2947    0.5907 O   0  0  0  0  0  0  0  0  0  0  0  0
   -2.0159    0.7690    0.2832 C   0  0  2  0  0  0  0  0  0  0  0  0
   -1.9614    2.5613    0.5102 S   0  0  0  0  0  0  0  0  0  0  0  0
   -1.0460    0.7146   -1.6382 H   0  0  0  0  0  0  0  0  0  0  0  0
    0.5030    1.1042    0.4067 H   0  0  0  0  0  0  0  0  0  0  0  0
    1.2324   -0.7884   -1.7082 H   0  0  0  0  0  0  0  0  0  0  0  0
    1.4003    0.9658   -1.8536 H   0  0  0  0  0  0  0  0  0  0  0  0
    2.4254   -1.9238    0.3092 H   0  0  0  0  0  0  0  0  0  0  0  0
    4.6329   -2.0861    1.4247 H   0  0  0  0  0  0  0  0  0  0  0  0
    6.2508   -0.2097    1.2536 H   0  0  0  0  0  0  0  0  0  0  0  0
    5.6500    1.8232   -0.0360 H   0  0  0  0  0  0  0  0  0  0  0  0
    3.4408    1.9798   -1.1458 H   0  0  0  0  0  0  0  0  0  0  0  0
   -1.2379   -1.6441   -1.8735 H   0  0  0  0  0  0  0  0  0  0  0  0
   -0.0427   -1.5105    0.4523 H   0  0  0  0  0  0  0  0  0  0  0  0
   -3.5427   -1.7474   -1.3089 H   0  0  0  0  0  0  0  0  0  0  0  0
   -2.3056   -2.3810    0.9412 H   0  0  0  0  0  0  0  0  0  0  0  0
   -3.5775    0.6673   -1.2030 H   0  0  0  0  0  0  0  0  0  0  0  0
   -4.3487   -0.4533    1.2071 H   0  0  0  0  0  0  0  0  0  0  0  0
   -1.8478    0.3543    1.2861 H   0  0  0  0  0  0  0  0  0  0  0  0
   -2.2741    2.8796   -0.7573 H   0  0  0  0  0  0  0  0  0  0  0  0
  1 10  1  6  0  0  0
  1  2  1  0  0  0  0
  2 19  1  0  0  0  0
  3  4  1  0  0  0  0
  3  2  1  0  0  0  0
  4  5  1  0  0  0  0
  5 22  1  0  0  0  0
  5  6  2  0  0  0  0
  6 23  1  0  0  0  0
  7  6  1  0  0  0  0
  7 24  1  0  0  0  0
  8  7  2  0  0  0  0
  9  4  2  0  0  0  0
  9  8  1  0  0  0  0
 10 12  1  1  0  0  0
 10 11  1  0  0  0  0
 11 28  1  0  0  0  0
 12 14  1  1  0  0  0
 12 13  1  0  0  0  0
 13 30  1  0  0  0  0
 14 16  1  1  0  0  0
 14 15  1  0  0  0  0
 15 32  1  0  0  0  0
 16  1  1  6  0  0  0
 16 17  1  0  0  0  0
 16 33  1  0  0  0  0
 18  1  1  0  0  0  0
 20  3  1  0  0  0  0
 21  3  1  0  0  0  0
 25  8  1  0  0  0  0
 26  9  1  0  0  0  0
 27 10  1  0  0  0  0
 29 12  1  0  0  0  0
 31 14  1  0  0  0  0
 34 17  1  0  0  0  0
M  END
