omegapdb_1z1r_05.log
 OpenBabel09261812563D

 66 68  0  0  1  0  0  0  0  0999 V2000
   -0.0010   -0.1540   -0.5513 C   0  0  2  0  0  0  0  0  0  0  0  0
   -0.1483   -1.5961   -0.0179 C   0  0  0  0  0  0  0  0  0  0  0  0
    1.1894   -2.2904    0.0677 C   0  0  0  0  0  0  0  0  0  0  0  0
    1.8944   -2.6359   -1.0874 C   0  0  0  0  0  0  0  0  0  0  0  0
    3.2189   -3.0488   -1.0198 C   0  0  0  0  0  0  0  0  0  0  0  0
    3.8587   -3.1249    0.2156 C   0  0  0  0  0  0  0  0  0  0  0  0
    3.1423   -2.8817    1.3846 C   0  0  0  0  0  0  0  0  0  0  0  0
    1.8194   -2.4589    1.3014 C   0  0  0  0  0  0  0  0  0  0  0  0
    5.1951   -3.4309    0.2443 O   0  0  0  0  0  0  0  0  0  0  0  0
    6.0464   -2.3960    0.7414 C   0  0  0  0  0  0  0  0  0  0  0  0
    6.0821   -1.1382   -0.1294 C   0  0  0  0  0  0  0  0  0  0  0  0
    4.9814   -0.1098    0.1423 C   0  0  0  0  0  0  0  0  0  0  0  0
    5.1110    1.0924   -0.7812 C   0  0  0  0  0  0  0  0  0  0  0  0
    5.9643    1.1614   -1.6469 O   0  0  0  0  0  0  0  0  0  0  0  0
    4.2281    2.1378   -0.5982 N   0  0  0  0  0  0  0  0  0  0  0  0
    2.9968    2.1064    0.1652 C   0  0  2  0  0  0  0  0  0  0  0  0
    1.8587    1.4546   -0.6405 C   0  0  0  0  0  0  0  0  0  0  0  0
    1.5986    1.8518   -1.7677 O   0  0  0  0  0  0  0  0  0  0  0  0
    1.2052    0.4526   -0.0118 N   0  0  0  0  0  0  0  0  0  0  0  0
    2.5937    3.5458    0.4949 C   0  0  0  0  0  0  0  0  0  0  0  0
    1.3386    3.6199    1.3502 C   0  0  0  0  0  0  0  0  0  0  0  0
    0.8637    2.6353    1.9126 O   0  0  0  0  0  0  0  0  0  0  0  0
    0.7883    4.8468    1.4694 N   0  0  0  0  0  0  0  0  0  0  0  0
   -1.1952    0.7486   -0.1884 C   0  0  2  0  0  0  0  0  0  0  0  0
   -1.3193    0.8809    1.2191 O   0  0  0  0  0  0  0  0  0  0  0  0
   -2.5290    0.2234   -0.6968 C   0  0  0  0  0  0  0  0  0  0  0  0
   -3.5551    1.1801   -0.3027 N   0  0  0  0  0  0  0  0  0  0  0  0
   -5.1085    0.9668   -0.8273 S   0  0  0  0  0  0  0  0  0  0  0  0
   -5.0368    0.7672   -2.2643 O   0  0  0  0  0  0  0  0  0  0  0  0
   -5.8785    2.0388   -0.2218 O   0  0  0  0  0  0  0  0  0  0  0  0
   -5.6791   -0.5650   -0.1163 C   0  0  0  0  0  0  0  0  0  0  0  0
   -6.2930   -0.5466    1.1333 C   0  0  0  0  0  0  0  0  0  0  0  0
   -6.7035   -1.7464    1.7028 C   0  0  0  0  0  0  0  0  0  0  0  0
   -6.4992   -2.9468    1.0260 C   0  0  0  0  0  0  0  0  0  0  0  0
   -5.8918   -2.9528   -0.2267 C   0  0  0  0  0  0  0  0  0  0  0  0
   -5.4797   -1.7573   -0.8069 C   0  0  0  0  0  0  0  0  0  0  0  0
    0.1226   -0.1589   -1.6398 H   0  0  0  0  0  0  0  0  0  0  0  0
   -0.6094   -1.5495    0.9761 H   0  0  0  0  0  0  0  0  0  0  0  0
   -0.8368   -2.1444   -0.6714 H   0  0  0  0  0  0  0  0  0  0  0  0
    1.4179   -2.5305   -2.0608 H   0  0  0  0  0  0  0  0  0  0  0  0
    3.7877   -3.2736   -1.9177 H   0  0  0  0  0  0  0  0  0  0  0  0
    3.6300   -2.9923    2.3498 H   0  0  0  0  0  0  0  0  0  0  0  0
    1.2737   -2.2299    2.2158 H   0  0  0  0  0  0  0  0  0  0  0  0
    7.0366   -2.8583    0.7592 H   0  0  0  0  0  0  0  0  0  0  0  0
    5.7768   -2.1484    1.7793 H   0  0  0  0  0  0  0  0  0  0  0  0
    7.0511   -0.6471    0.0158 H   0  0  0  0  0  0  0  0  0  0  0  0
    6.0575   -1.4375   -1.1824 H   0  0  0  0  0  0  0  0  0  0  0  0
    3.9838   -0.5432    0.0008 H   0  0  0  0  0  0  0  0  0  0  0  0
    5.0237    0.2271    1.1882 H   0  0  0  0  0  0  0  0  0  0  0  0
    4.2303    2.7664   -1.3930 H   0  0  0  0  0  0  0  0  0  0  0  0
    3.1695    1.5647    1.0993 H   0  0  0  0  0  0  0  0  0  0  0  0
    1.3678    0.3457    0.9796 H   0  0  0  0  0  0  0  0  0  0  0  0
    3.4183    4.0453    1.0172 H   0  0  0  0  0  0  0  0  0  0  0  0
    2.4205    4.0851   -0.4451 H   0  0  0  0  0  0  0  0  0  0  0  0
   -0.0562    4.9470    2.0128 H   0  0  0  0  0  0  0  0  0  0  0  0
    1.1319    5.6437    0.9577 H   0  0  0  0  0  0  0  0  0  0  0  0
   -1.0186    1.7309   -0.6500 H   0  0  0  0  0  0  0  0  0  0  0  0
   -0.6734    1.5421    1.5243 H   0  0  0  0  0  0  0  0  0  0  0  0
   -2.7231   -0.7762   -0.2774 H   0  0  0  0  0  0  0  0  0  0  0  0
   -2.5196    0.1537   -1.7887 H   0  0  0  0  0  0  0  0  0  0  0  0
   -3.5069    1.4153    0.6852 H   0  0  0  0  0  0  0  0  0  0  0  0
   -6.4631    0.4026    1.6334 H   0  0  0  0  0  0  0  0  0  0  0  0
   -7.1913   -1.7441    2.6737 H   0  0  0  0  0  0  0  0  0  0  0  0
   -6.8239   -3.8822    1.4743 H   0  0  0  0  0  0  0  0  0  0  0  0
   -5.7466   -3.8895   -0.7579 H   0  0  0  0  0  0  0  0  0  0  0  0
   -5.0312   -1.7359   -1.7961 H   0  0  0  0  0  0  0  0  0  0  0  0
  1 37  1  6  0  0  0
  1 24  1  0  0  0  0
  1  2  1  0  0  0  0
  1 19  1  0  0  0  0
  2  3  1  0  0  0  0
  2 38  1  0  0  0  0
  3  8  2  0  0  0  0
  4  5  2  0  0  0  0
  4  3  1  0  0  0  0
  5  6  1  0  0  0  0
  6  9  1  0  0  0  0
  6  7  2  0  0  0  0
  7 42  1  0  0  0  0
  8  7  1  0  0  0  0
  8 43  1  0  0  0  0
  9 10  1  0  0  0  0
 10 44  1  0  0  0  0
 10 45  1  0  0  0  0
 11 46  1  0  0  0  0
 11 12  1  0  0  0  0
 11 10  1  0  0  0  0
 12 49  1  0  0  0  0
 13 15  1  0  0  0  0
 13 12  1  0  0  0  0
 14 13  2  0  0  0  0
 15 16  1  0  0  0  0
 16 20  1  0  0  0  0
 16 51  1  1  0  0  0
 17 19  1  0  0  0  0
 17 16  1  0  0  0  0
 18 17  2  0  0  0  0
 19 52  1  0  0  0  0
 20 53  1  0  0  0  0
 20 21  1  0  0  0  0
 21 23  1  0  0  0  0
 21 22  2  0  0  0  0
 23 55  1  0  0  0  0
 24 57  1  6  0  0  0
 24 25  1  0  0  0  0
 25 58  1  0  0  0  0
 26 27  1  0  0  0  0
 26 59  1  0  0  0  0
 26 24  1  0  0  0  0
 27 61  1  0  0  0  0
 28 27  1  0  0  0  0
 28 30  2  0  0  0  0
 28 31  1  0  0  0  0
 29 28  2  0  0  0  0
 31 32  2  0  0  0  0
 32 62  1  0  0  0  0
 32 33  1  0  0  0  0
 33 63  1  0  0  0  0
 34 64  1  0  0  0  0
 34 33  2  0  0  0  0
 35 34  1  0  0  0  0
 36 35  2  0  0  0  0
 36 31  1  0  0  0  0
 39  2  1  0  0  0  0
 40  4  1  0  0  0  0
 41  5  1  0  0  0  0
 47 11  1  0  0  0  0
 48 12  1  0  0  0  0
 50 15  1  0  0  0  0
 54 20  1  0  0  0  0
 56 23  1  0  0  0  0
 60 26  1  0  0  0  0
 65 35  1  0  0  0  0
 66 36  1  0  0  0  0
M  END
