omegapdb_1z1r_23.log
 OpenBabel09261812563D

 66 68  0  0  1  0  0  0  0  0999 V2000
    0.1984    0.0554    0.6015 C   0  0  2  0  0  0  0  0  0  0  0  0
    0.0179   -1.1808    1.5427 C   0  0  0  0  0  0  0  0  0  0  0  0
   -1.3171   -1.8725    1.3673 C   0  0  0  0  0  0  0  0  0  0  0  0
   -2.4023   -1.5165    2.1735 C   0  0  0  0  0  0  0  0  0  0  0  0
   -3.6992   -1.9064    1.8557 C   0  0  0  0  0  0  0  0  0  0  0  0
   -3.9254   -2.6744    0.7166 C   0  0  0  0  0  0  0  0  0  0  0  0
   -2.8408   -3.1357   -0.0332 C   0  0  0  0  0  0  0  0  0  0  0  0
   -1.5526   -2.7226    0.2836 C   0  0  0  0  0  0  0  0  0  0  0  0
   -5.2221   -2.9688    0.3925 O   0  0  0  0  0  0  0  0  0  0  0  0
   -5.6347   -2.7076   -0.9448 C   0  0  0  0  0  0  0  0  0  0  0  0
   -6.0150   -1.2521   -1.2129 C   0  0  0  0  0  0  0  0  0  0  0  0
   -4.8650   -0.2329   -1.2487 C   0  0  0  0  0  0  0  0  0  0  0  0
   -4.7635    0.5889    0.0366 C   0  0  0  0  0  0  0  0  0  0  0  0
   -5.5776    0.4875    0.9387 O   0  0  0  0  0  0  0  0  0  0  0  0
   -3.6987    1.4459    0.1637 N   0  0  0  0  0  0  0  0  0  0  0  0
   -2.7926    1.9434   -0.8541 C   0  0  2  0  0  0  0  0  0  0  0  0
   -1.3113    1.6901   -0.4872 C   0  0  0  0  0  0  0  0  0  0  0  0
   -0.4359    2.4990   -0.7819 O   0  0  0  0  0  0  0  0  0  0  0  0
   -1.0949    0.5108    0.1170 N   0  0  0  0  0  0  0  0  0  0  0  0
   -2.9830    3.4384   -1.1304 C   0  0  0  0  0  0  0  0  0  0  0  0
   -2.5942    4.2729    0.0809 C   0  0  0  0  0  0  0  0  0  0  0  0
   -2.8164    3.8985    1.2245 O   0  0  0  0  0  0  0  0  0  0  0  0
   -2.0535    5.4917   -0.1889 N   0  0  0  0  0  0  0  0  0  0  0  0
    1.1638   -0.2076   -0.5640 C   0  0  2  0  0  0  0  0  0  0  0  0
    0.8514   -1.4339   -1.1846 O   0  0  0  0  0  0  0  0  0  0  0  0
    2.6172   -0.2200   -0.0850 C   0  0  0  0  0  0  0  0  0  0  0  0
    3.4754   -0.4918   -1.2385 N   0  0  0  0  0  0  0  0  0  0  0  0
    4.9303   -1.2783   -1.0204 S   0  0  0  0  0  0  0  0  0  0  0  0
    5.5451   -1.3010   -2.3346 O   0  0  0  0  0  0  0  0  0  0  0  0
    4.6338   -2.4840   -0.2694 O   0  0  0  0  0  0  0  0  0  0  0  0
    5.9124   -0.2244    0.0242 C   0  0  0  0  0  0  0  0  0  0  0  0
    6.7111    0.7553   -0.5603 C   0  0  0  0  0  0  0  0  0  0  0  0
    7.4501    1.6001    0.2599 C   0  0  0  0  0  0  0  0  0  0  0  0
    7.3865    1.4601    1.6445 C   0  0  0  0  0  0  0  0  0  0  0  0
    6.5922    0.4700    2.2165 C   0  0  0  0  0  0  0  0  0  0  0  0
    5.8495   -0.3823    1.4059 C   0  0  0  0  0  0  0  0  0  0  0  0
    0.6376    0.8831    1.1756 H   0  0  0  0  0  0  0  0  0  0  0  0
    0.1150   -0.8476    2.5812 H   0  0  0  0  0  0  0  0  0  0  0  0
    0.8312   -1.8864    1.3479 H   0  0  0  0  0  0  0  0  0  0  0  0
   -2.2420   -0.8632    3.0298 H   0  0  0  0  0  0  0  0  0  0  0  0
   -4.5529   -1.5622    2.4304 H   0  0  0  0  0  0  0  0  0  0  0  0
   -3.0046   -3.7900   -0.8851 H   0  0  0  0  0  0  0  0  0  0  0  0
   -0.7206   -3.0101   -0.3522 H   0  0  0  0  0  0  0  0  0  0  0  0
   -4.8694   -3.0418   -1.6585 H   0  0  0  0  0  0  0  0  0  0  0  0
   -6.5178   -3.3365   -1.0913 H   0  0  0  0  0  0  0  0  0  0  0  0
   -6.5275   -1.2464   -2.1829 H   0  0  0  0  0  0  0  0  0  0  0  0
   -6.7381   -0.9321   -0.4568 H   0  0  0  0  0  0  0  0  0  0  0  0
   -3.9005   -0.7210   -1.4434 H   0  0  0  0  0  0  0  0  0  0  0  0
   -5.0210    0.4702   -2.0780 H   0  0  0  0  0  0  0  0  0  0  0  0
   -3.7256    2.0252    0.9991 H   0  0  0  0  0  0  0  0  0  0  0  0
   -2.9766    1.3947   -1.7842 H   0  0  0  0  0  0  0  0  0  0  0  0
   -1.9132   -0.0151    0.3901 H   0  0  0  0  0  0  0  0  0  0  0  0
   -4.0387    3.6317   -1.3539 H   0  0  0  0  0  0  0  0  0  0  0  0
   -2.3914    3.7254   -2.0036 H   0  0  0  0  0  0  0  0  0  0  0  0
   -1.5947    5.6476   -1.0728 H   0  0  0  0  0  0  0  0  0  0  0  0
   -1.6912    5.9981    0.6066 H   0  0  0  0  0  0  0  0  0  0  0  0
    1.0446    0.6270   -1.2719 H   0  0  0  0  0  0  0  0  0  0  0  0
    1.6248   -1.6702   -1.7204 H   0  0  0  0  0  0  0  0  0  0  0  0
    2.7625   -1.0400    0.6259 H   0  0  0  0  0  0  0  0  0  0  0  0
    2.8767    0.7278    0.4065 H   0  0  0  0  0  0  0  0  0  0  0  0
    3.5859    0.2877   -1.8809 H   0  0  0  0  0  0  0  0  0  0  0  0
    6.7667    0.8314   -1.6426 H   0  0  0  0  0  0  0  0  0  0  0  0
    8.0841    2.3634   -0.1826 H   0  0  0  0  0  0  0  0  0  0  0  0
    7.9689    2.1206    2.2814 H   0  0  0  0  0  0  0  0  0  0  0  0
    6.5570    0.3535    3.2961 H   0  0  0  0  0  0  0  0  0  0  0  0
    5.2472   -1.1801    1.8309 H   0  0  0  0  0  0  0  0  0  0  0  0
  1 37  1  1  0  0  0
  1  2  1  0  0  0  0
  2 38  1  0  0  0  0
  3  2  1  0  0  0  0
  3  4  2  0  0  0  0
  4 40  1  0  0  0  0
  5  4  1  0  0  0  0
  5 41  1  0  0  0  0
  6  5  2  0  0  0  0
  7  8  2  0  0  0  0
  7  6  1  0  0  0  0
  8  3  1  0  0  0  0
  9  6  1  0  0  0  0
 10  9  1  0  0  0  0
 11 10  1  0  0  0  0
 11 47  1  0  0  0  0
 12 11  1  0  0  0  0
 12 13  1  0  0  0  0
 13 15  1  0  0  0  0
 13 14  2  0  0  0  0
 15 50  1  0  0  0  0
 16 51  1  6  0  0  0
 16 17  1  0  0  0  0
 16 15  1  0  0  0  0
 17 19  1  0  0  0  0
 18 17  2  0  0  0  0
 19 52  1  0  0  0  0
 19  1  1  0  0  0  0
 20 16  1  0  0  0  0
 20 21  1  0  0  0  0
 21 22  2  0  0  0  0
 23 21  1  0  0  0  0
 23 56  1  0  0  0  0
 24 57  1  6  0  0  0
 24 26  1  0  0  0  0
 24  1  1  0  0  0  0
 25 24  1  0  0  0  0
 26 60  1  0  0  0  0
 26 59  1  0  0  0  0
 27 28  1  0  0  0  0
 27 26  1  0  0  0  0
 28 30  2  0  0  0  0
 28 31  1  0  0  0  0
 29 28  2  0  0  0  0
 31 36  1  0  0  0  0
 32 31  2  0  0  0  0
 32 33  1  0  0  0  0
 33 34  2  0  0  0  0
 34 35  1  0  0  0  0
 34 64  1  0  0  0  0
 35 65  1  0  0  0  0
 36 66  1  0  0  0  0
 36 35  2  0  0  0  0
 39  2  1  0  0  0  0
 42  7  1  0  0  0  0
 43  8  1  0  0  0  0
 44 10  1  0  0  0  0
 45 10  1  0  0  0  0
 46 11  1  0  0  0  0
 48 12  1  0  0  0  0
 49 12  1  0  0  0  0
 53 20  1  0  0  0  0
 54 20  1  0  0  0  0
 55 23  1  0  0  0  0
 58 25  1  0  0  0  0
 61 27  1  0  0  0  0
 62 32  1  0  0  0  0
 63 33  1  0  0  0  0
M  END
