omegapdb_1xom_16.log
 OpenBabel09261812563D

 50 52  0  0  1  0  0  0  0  0999 V2000
   -5.6162   -0.8956    0.9710 O   0  0  0  0  0  0  0  0  0  0  0  0
   -5.7488   -0.2491   -0.2097 C   0  0  0  0  0  0  0  0  0  0  0  0
   -6.8096   -0.1697   -0.7798 O   0  0  0  0  0  0  0  0  0  0  0  0
   -4.4360    0.3115   -0.7073 C   0  0  1  0  0  0  0  0  0  0  0  0
   -3.6865    1.1306    0.3712 C   0  0  0  0  0  0  0  0  0  0  0  0
   -2.6706    0.2873    1.1432 C   0  0  0  0  0  0  0  0  0  0  0  0
   -1.5494   -0.2865    0.2224 C   0  0  2  0  0  0  0  0  0  0  0  0
   -2.0828   -0.4173   -1.2365 C   0  0  0  0  0  0  0  0  0  0  0  0
   -3.5501   -0.8353   -1.2517 C   0  0  0  0  0  0  0  0  0  0  0  0
   -1.2423   -1.6511    0.7029 C   0  0  0  0  0  0  0  0  0  0  0  0
   -1.0168   -2.7318    1.0513 N   0  0  0  0  0  0  0  0  0  0  0  0
   -0.2576    0.5394    0.2131 C   0  0  0  0  0  0  0  0  0  0  0  0
   -0.2561    1.9005    0.4633 C   0  0  0  0  0  0  0  0  0  0  0  0
    0.9305    2.6397    0.3752 C   0  0  0  0  0  0  0  0  0  0  0  0
    2.1246    2.0247    0.0387 C   0  0  0  0  0  0  0  0  0  0  0  0
    3.3255    2.6467   -0.0649 O   0  0  0  0  0  0  0  0  0  0  0  0
    3.3627    4.0295    0.2064 C   0  0  0  0  0  0  0  0  0  0  0  0
    2.1361    0.6323   -0.2191 C   0  0  0  0  0  0  0  0  0  0  0  0
    0.9524   -0.0837   -0.1338 C   0  0  0  0  0  0  0  0  0  0  0  0
    3.3425    0.1100   -0.5371 O   0  0  0  0  0  0  0  0  0  0  0  0
    3.4423   -1.2999   -0.7663 C   0  0  0  0  0  0  0  0  0  0  0  0
    3.3324   -2.0963    0.5559 C   0  0  0  0  0  0  0  0  0  0  0  0
    4.7751   -2.5170    0.9222 C   0  0  0  0  0  0  0  0  0  0  0  0
    5.6788   -1.6522    0.0330 C   0  0  0  0  0  0  0  0  0  0  0  0
    4.8681   -1.5400   -1.2593 C   0  0  0  0  0  0  0  0  0  0  0  0
   -6.4983   -1.2374    1.1924 H   0  0  0  0  0  0  0  0  0  0  0  0
   -4.7065    0.9728   -1.5358 H   0  0  0  0  0  0  0  0  0  0  0  0
   -4.3985    1.5745    1.0754 H   0  0  0  0  0  0  0  0  0  0  0  0
   -3.1810    1.9681   -0.1238 H   0  0  0  0  0  0  0  0  0  0  0  0
   -3.2060   -0.5398    1.6192 H   0  0  0  0  0  0  0  0  0  0  0  0
   -2.2135    0.8671    1.9506 H   0  0  0  0  0  0  0  0  0  0  0  0
   -1.4597   -1.1282   -1.7888 H   0  0  0  0  0  0  0  0  0  0  0  0
   -1.9623    0.5553   -1.7284 H   0  0  0  0  0  0  0  0  0  0  0  0
   -3.6735   -1.7365   -0.6373 H   0  0  0  0  0  0  0  0  0  0  0  0
   -3.8690   -1.0976   -2.2654 H   0  0  0  0  0  0  0  0  0  0  0  0
   -1.1686    2.4213    0.7381 H   0  0  0  0  0  0  0  0  0  0  0  0
    0.9019    3.7046    0.5810 H   0  0  0  0  0  0  0  0  0  0  0  0
    2.7282    4.5948   -0.4892 H   0  0  0  0  0  0  0  0  0  0  0  0
    3.0493    4.2458    1.2364 H   0  0  0  0  0  0  0  0  0  0  0  0
    4.4020    4.3341    0.0741 H   0  0  0  0  0  0  0  0  0  0  0  0
    0.9616   -1.1553   -0.3049 H   0  0  0  0  0  0  0  0  0  0  0  0
    2.6900   -1.5887   -1.5113 H   0  0  0  0  0  0  0  0  0  0  0  0
    2.8924   -1.4579    1.3282 H   0  0  0  0  0  0  0  0  0  0  0  0
    2.6685   -2.9609    0.4479 H   0  0  0  0  0  0  0  0  0  0  0  0
    4.9850   -2.3946    1.9891 H   0  0  0  0  0  0  0  0  0  0  0  0
    4.9298   -3.5761    0.6827 H   0  0  0  0  0  0  0  0  0  0  0  0
    5.8056   -0.6552    0.4708 H   0  0  0  0  0  0  0  0  0  0  0  0
    6.6730   -2.0854   -0.1164 H   0  0  0  0  0  0  0  0  0  0  0  0
    5.1940   -0.7445   -1.9350 H   0  0  0  0  0  0  0  0  0  0  0  0
    4.8992   -2.4919   -1.8050 H   0  0  0  0  0  0  0  0  0  0  0  0
  1 26  1  0  0  0  0
  2  1  1  0  0  0  0
  3  2  2  0  0  0  0
  4 27  1  6  0  0  0
  4  2  1  0  0  0  0
  4  5  1  0  0  0  0
  5 28  1  0  0  0  0
  5  6  1  0  0  0  0
  6 30  1  0  0  0  0
  6 31  1  0  0  0  0
  7 10  1  1  0  0  0
  7  6  1  0  0  0  0
  8  7  1  0  0  0  0
  9  8  1  0  0  0  0
  9  4  1  0  0  0  0
  9 34  1  0  0  0  0
 10 11  3  0  0  0  0
 12  7  1  0  0  0  0
 12 13  2  0  0  0  0
 13 36  1  0  0  0  0
 14 13  1  0  0  0  0
 14 37  1  0  0  0  0
 15 14  2  0  0  0  0
 16 15  1  0  0  0  0
 16 17  1  0  0  0  0
 17 39  1  0  0  0  0
 18 19  2  0  0  0  0
 18 15  1  0  0  0  0
 19 12  1  0  0  0  0
 20 18  1  0  0  0  0
 21 20  1  0  0  0  0
 21 22  1  0  0  0  0
 22 23  1  0  0  0  0
 22 43  1  0  0  0  0
 23 45  1  0  0  0  0
 24 47  1  0  0  0  0
 24 23  1  0  0  0  0
 25 21  1  0  0  0  0
 25 24  1  0  0  0  0
 29  5  1  0  0  0  0
 32  8  1  0  0  0  0
 33  8  1  0  0  0  0
 35  9  1  0  0  0  0
 38 17  1  0  0  0  0
 40 17  1  0  0  0  0
 41 19  1  0  0  0  0
 42 21  1  0  0  0  0
 44 22  1  0  0  0  0
 46 23  1  0  0  0  0
 48 24  1  0  0  0  0
 49 25  1  0  0  0  0
 50 25  1  0  0  0  0
M  END
