omegapdb_1m5f_04.log
 OpenBabel09261812563D

 25 25  0  0  1  0  0  0  0  0999 V2000
    0.1973    3.3011    0.2881 O   0  0  0  0  0  0  0  0  0  0  0  0
    0.4133    2.1031   -0.2613 C   0  0  0  0  0  0  0  0  0  0  0  0
    1.4400    1.8310   -0.8323 O   0  0  0  0  0  0  0  0  0  0  0  0
   -0.7203    1.1386   -0.1208 C   0  0  0  0  0  0  0  0  0  0  0  0
   -1.8118    1.5556    0.4689 N   0  0  0  0  0  0  0  0  0  0  0  0
   -2.6695    0.5014    0.4618 O   0  0  0  0  0  0  0  0  0  0  0  0
   -2.0804   -0.5547   -0.1383 C   0  0  0  0  0  0  0  0  0  0  0  0
   -0.8241   -0.2155   -0.5464 C   0  0  0  0  0  0  0  0  0  0  0  0
    0.1832   -1.0826   -1.2434 C   0  0  0  0  0  0  0  0  0  0  0  0
    1.1095   -1.8385   -0.2627 C   0  0  2  0  0  0  0  0  0  0  0  0
    0.3193   -2.6033    0.6888 N   0  0  0  0  0  0  0  0  0  0  0  0
    2.0151   -0.8167    0.4086 C   0  0  0  0  0  0  0  0  0  0  0  0
    1.7697   -0.3020    1.4761 O   0  0  0  0  0  0  0  0  0  0  0  0
    3.0762   -0.5060   -0.3444 O   0  0  0  0  0  0  0  0  0  0  0  0
   -2.8815   -1.8047   -0.2383 C   0  0  0  0  0  0  0  0  0  0  0  0
   -0.6876    3.3073    0.6962 H   0  0  0  0  0  0  0  0  0  0  0  0
   -0.3423   -1.8359   -1.8387 H   0  0  0  0  0  0  0  0  0  0  0  0
    0.7912   -0.4742   -1.9191 H   0  0  0  0  0  0  0  0  0  0  0  0
    1.7295   -2.5198   -0.8538 H   0  0  0  0  0  0  0  0  0  0  0  0
    0.0249   -1.9643    1.4260 H   0  0  0  0  0  0  0  0  0  0  0  0
    0.9123   -3.2903    1.1463 H   0  0  0  0  0  0  0  0  0  0  0  0
    3.4703    0.2953    0.0402 H   0  0  0  0  0  0  0  0  0  0  0  0
   -3.5895   -1.8643    0.5923 H   0  0  0  0  0  0  0  0  0  0  0  0
   -3.4503   -1.8329   -1.1741 H   0  0  0  0  0  0  0  0  0  0  0  0
   -2.2091   -2.6653   -0.1973 H   0  0  0  0  0  0  0  0  0  0  0  0
  1 16  1  0  0  0  0
  2  4  1  0  0  0  0
  2  1  1  0  0  0  0
  3  2  2  0  0  0  0
  4  5  2  0  0  0  0
  6  5  1  0  0  0  0
  7  6  1  0  0  0  0
  8  7  2  0  0  0  0
  8  4  1  0  0  0  0
  9  8  1  0  0  0  0
  9 10  1  0  0  0  0
 10 19  1  6  0  0  0
 10 12  1  0  0  0  0
 10 11  1  0  0  0  0
 11 21  1  0  0  0  0
 11 20  1  0  0  0  0
 12 13  2  0  0  0  0
 14 22  1  0  0  0  0
 14 12  1  0  0  0  0
 15 25  1  0  0  0  0
 15  7  1  0  0  0  0
 15 23  1  0  0  0  0
 17  9  1  0  0  0  0
 18  9  1  0  0  0  0
 24 15  1  0  0  0  0
M  END
