omegapdb_2f7p_02.log
 OpenBabel09261812563D

 34 35  0  0  1  0  0  0  0  0999 V2000
   -0.5959   -0.4321    0.0871 C   0  0  1  0  0  0  0  0  0  0  0  0
    0.1244   -1.0651    1.1614 N   0  0  0  0  0  0  0  0  0  0  0  0
    1.2756   -0.3466    1.6864 C   0  0  0  0  0  0  0  0  0  0  0  0
    2.4215   -0.3091    0.6935 C   0  0  0  0  0  0  0  0  0  0  0  0
    2.7509   -1.4457   -0.0485 C   0  0  0  0  0  0  0  0  0  0  0  0
    3.8200   -1.4240   -0.9377 C   0  0  0  0  0  0  0  0  0  0  0  0
    4.5751   -0.2641   -1.0974 C   0  0  0  0  0  0  0  0  0  0  0  0
    4.2505    0.8735   -0.3655 C   0  0  0  0  0  0  0  0  0  0  0  0
    3.1765    0.8501    0.5211 C   0  0  0  0  0  0  0  0  0  0  0  0
   -1.7807   -1.3029   -0.3505 C   0  0  1  0  0  0  0  0  0  0  0  0
   -2.5439   -1.7960    0.7447 O   0  0  0  0  0  0  0  0  0  0  0  0
   -2.6446   -0.3442   -1.1761 C   0  0  1  0  0  0  0  0  0  0  0  0
   -3.9613   -0.8185   -1.3628 O   0  0  0  0  0  0  0  0  0  0  0  0
   -2.6267    0.9446   -0.3254 C   0  0  1  0  0  0  0  0  0  0  0  0
   -3.5901    0.7944    0.7174 O   0  0  0  0  0  0  0  0  0  0  0  0
   -1.2301    0.9826    0.3315 C   0  0  2  0  0  0  0  0  0  0  0  0
   -0.1934    2.3877   -0.1819 S   0  0  0  0  0  0  0  0  0  0  0  0
    0.0861   -0.3568   -0.7722 H   0  0  0  0  0  0  0  0  0  0  0  0
   -0.5210   -1.3396    1.8938 H   0  0  0  0  0  0  0  0  0  0  0  0
    1.0453    0.6856    1.9998 H   0  0  0  0  0  0  0  0  0  0  0  0
    1.6008   -0.8845    2.5857 H   0  0  0  0  0  0  0  0  0  0  0  0
    2.1504   -2.3438    0.0762 H   0  0  0  0  0  0  0  0  0  0  0  0
    4.0667   -2.3166   -1.5079 H   0  0  0  0  0  0  0  0  0  0  0  0
    5.4098   -0.2470   -1.7938 H   0  0  0  0  0  0  0  0  0  0  0  0
    4.8284    1.7861   -0.4897 H   0  0  0  0  0  0  0  0  0  0  0  0
    2.9130    1.7468    1.0788 H   0  0  0  0  0  0  0  0  0  0  0  0
   -1.4475   -2.1843   -0.9047 H   0  0  0  0  0  0  0  0  0  0  0  0
   -2.9596   -1.0171    1.1624 H   0  0  0  0  0  0  0  0  0  0  0  0
   -2.1850   -0.1611   -2.1555 H   0  0  0  0  0  0  0  0  0  0  0  0
   -4.0467   -1.5812   -0.7674 H   0  0  0  0  0  0  0  0  0  0  0  0
   -2.8415    1.8500   -0.9044 H   0  0  0  0  0  0  0  0  0  0  0  0
   -4.4018    0.5188    0.2585 H   0  0  0  0  0  0  0  0  0  0  0  0
   -1.3847    1.1389    1.4051 H   0  0  0  0  0  0  0  0  0  0  0  0
    0.3194    1.8263   -1.2888 H   0  0  0  0  0  0  0  0  0  0  0  0
  1 10  1  6  0  0  0
  1  2  1  0  0  0  0
  2  3  1  0  0  0  0
  2 19  1  0  0  0  0
  3 20  1  0  0  0  0
  3 21  1  0  0  0  0
  4  3  1  0  0  0  0
  5 22  1  0  0  0  0
  5  4  2  0  0  0  0
  6  5  1  0  0  0  0
  7  6  2  0  0  0  0
  7  8  1  0  0  0  0
  8  9  2  0  0  0  0
  9  4  1  0  0  0  0
  9 26  1  0  0  0  0
 10 12  1  6  0  0  0
 10 11  1  0  0  0  0
 11 28  1  0  0  0  0
 12 14  1  1  0  0  0
 13 12  1  0  0  0  0
 13 30  1  0  0  0  0
 14 16  1  1  0  0  0
 14 15  1  0  0  0  0
 16  1  1  6  0  0  0
 16 33  1  0  0  0  0
 17 16  1  0  0  0  0
 18  1  1  0  0  0  0
 23  6  1  0  0  0  0
 24  7  1  0  0  0  0
 25  8  1  0  0  0  0
 27 10  1  0  0  0  0
 29 12  1  0  0  0  0
 31 14  1  0  0  0  0
 32 15  1  0  0  0  0
 34 17  1  0  0  0  0
M  END
