omegapdb_1z1r_27.log
 OpenBabel09261812563D

 66 68  0  0  1  0  0  0  0  0999 V2000
    0.3704    0.1125    0.5618 C   0  0  2  0  0  0  0  0  0  0  0  0
    0.4750   -1.4031    0.9373 C   0  0  0  0  0  0  0  0  0  0  0  0
   -0.7754   -2.1962    0.6210 C   0  0  0  0  0  0  0  0  0  0  0  0
   -1.0862   -2.5671   -0.6909 C   0  0  0  0  0  0  0  0  0  0  0  0
   -2.3497   -3.0457   -1.0186 C   0  0  0  0  0  0  0  0  0  0  0  0
   -3.3369   -3.1399   -0.0335 C   0  0  0  0  0  0  0  0  0  0  0  0
   -3.0139   -2.8671    1.2934 C   0  0  0  0  0  0  0  0  0  0  0  0
   -1.7425   -2.4006    1.6090 C   0  0  0  0  0  0  0  0  0  0  0  0
   -4.6182   -3.5263   -0.3091 O   0  0  0  0  0  0  0  0  0  0  0  0
   -5.3132   -2.8228   -1.3360 C   0  0  0  0  0  0  0  0  0  0  0  0
   -5.9264   -1.4996   -0.8807 C   0  0  0  0  0  0  0  0  0  0  0  0
   -4.9439   -0.3449   -0.6301 C   0  0  0  0  0  0  0  0  0  0  0  0
   -4.6722   -0.1047    0.8516 C   0  0  0  0  0  0  0  0  0  0  0  0
   -5.2720   -0.6856    1.7382 O   0  0  0  0  0  0  0  0  0  0  0  0
   -3.6813    0.7982    1.1746 N   0  0  0  0  0  0  0  0  0  0  0  0
   -3.0611    1.7989    0.3247 C   0  0  2  0  0  0  0  0  0  0  0  0
   -1.5205    1.7406    0.4539 C   0  0  0  0  0  0  0  0  0  0  0  0
   -0.8312    2.7473    0.5549 O   0  0  0  0  0  0  0  0  0  0  0  0
   -1.0326    0.4819    0.3919 N   0  0  0  0  0  0  0  0  0  0  0  0
   -3.5667    3.2219    0.5756 C   0  0  0  0  0  0  0  0  0  0  0  0
   -3.3243    4.0758   -0.6650 C   0  0  0  0  0  0  0  0  0  0  0  0
   -3.9598    3.8688   -1.6863 O   0  0  0  0  0  0  0  0  0  0  0  0
   -2.3902    5.0584   -0.5381 N   0  0  0  0  0  0  0  0  0  0  0  0
    1.1411    0.5020   -0.7141 C   0  0  2  0  0  0  0  0  0  0  0  0
    0.6552   -0.1926   -1.8484 O   0  0  0  0  0  0  0  0  0  0  0  0
    2.6370    0.1995   -0.6780 C   0  0  0  0  0  0  0  0  0  0  0  0
    3.2654    0.7465    0.5182 N   0  0  0  0  0  0  0  0  0  0  0  0
    4.8372    1.2877    0.4362 S   0  0  0  0  0  0  0  0  0  0  0  0
    5.1771    1.6611    1.7971 O   0  0  0  0  0  0  0  0  0  0  0  0
    4.9040    2.2152   -0.6773 O   0  0  0  0  0  0  0  0  0  0  0  0
    5.8241   -0.1304    0.0015 C   0  0  0  0  0  0  0  0  0  0  0  0
    6.0720   -0.4052   -1.3405 C   0  0  0  0  0  0  0  0  0  0  0  0
    6.8064   -1.5390   -1.6734 C   0  0  0  0  0  0  0  0  0  0  0  0
    7.2859   -2.3784   -0.6718 C   0  0  0  0  0  0  0  0  0  0  0  0
    7.0420   -2.0860    0.6684 C   0  0  0  0  0  0  0  0  0  0  0  0
    6.3082   -0.9566    1.0127 C   0  0  0  0  0  0  0  0  0  0  0  0
    0.7792    0.7256    1.3749 H   0  0  0  0  0  0  0  0  0  0  0  0
    0.6804   -1.4842    2.0104 H   0  0  0  0  0  0  0  0  0  0  0  0
    1.3333   -1.8384    0.4153 H   0  0  0  0  0  0  0  0  0  0  0  0
   -0.3411   -2.4277   -1.4706 H   0  0  0  0  0  0  0  0  0  0  0  0
   -2.5754   -3.3232   -2.0448 H   0  0  0  0  0  0  0  0  0  0  0  0
   -3.7895   -2.9557    2.0471 H   0  0  0  0  0  0  0  0  0  0  0  0
   -1.5187   -2.1334    2.6406 H   0  0  0  0  0  0  0  0  0  0  0  0
   -6.1139   -3.5017   -1.6426 H   0  0  0  0  0  0  0  0  0  0  0  0
   -4.6602   -2.6663   -2.2057 H   0  0  0  0  0  0  0  0  0  0  0  0
   -6.5055   -1.6738    0.0313 H   0  0  0  0  0  0  0  0  0  0  0  0
   -6.6320   -1.2017   -1.6653 H   0  0  0  0  0  0  0  0  0  0  0  0
   -5.3429    0.5898   -1.0470 H   0  0  0  0  0  0  0  0  0  0  0  0
   -3.9910   -0.5189   -1.1476 H   0  0  0  0  0  0  0  0  0  0  0  0
   -3.6195    0.9481    2.1750 H   0  0  0  0  0  0  0  0  0  0  0  0
   -3.3032    1.5487   -0.7136 H   0  0  0  0  0  0  0  0  0  0  0  0
   -1.7183   -0.2554    0.4843 H   0  0  0  0  0  0  0  0  0  0  0  0
   -3.1025    3.6468    1.4705 H   0  0  0  0  0  0  0  0  0  0  0  0
   -4.6501    3.1827    0.7199 H   0  0  0  0  0  0  0  0  0  0  0  0
   -1.6430    4.8845    0.1220 H   0  0  0  0  0  0  0  0  0  0  0  0
   -2.1224    5.5082   -1.4030 H   0  0  0  0  0  0  0  0  0  0  0  0
    1.0163    1.5870   -0.8339 H   0  0  0  0  0  0  0  0  0  0  0  0
   -0.2827    0.0289   -1.9311 H   0  0  0  0  0  0  0  0  0  0  0  0
    2.8058   -0.8816   -0.7824 H   0  0  0  0  0  0  0  0  0  0  0  0
    3.0868    0.6856   -1.5475 H   0  0  0  0  0  0  0  0  0  0  0  0
    3.1255    0.2175    1.3729 H   0  0  0  0  0  0  0  0  0  0  0  0
    5.7135    0.2779   -2.1050 H   0  0  0  0  0  0  0  0  0  0  0  0
    7.0107   -1.7611   -2.7171 H   0  0  0  0  0  0  0  0  0  0  0  0
    7.8614   -3.2617   -0.9360 H   0  0  0  0  0  0  0  0  0  0  0  0
    7.4314   -2.7352    1.4478 H   0  0  0  0  0  0  0  0  0  0  0  0
    6.1291   -0.6977    2.0525 H   0  0  0  0  0  0  0  0  0  0  0  0
  1  2  1  0  0  0  0
  1 37  1  1  0  0  0
  2 38  1  0  0  0  0
  3  2  1  0  0  0  0
  3  8  2  0  0  0  0
  4  3  1  0  0  0  0
  5  4  2  0  0  0  0
  5  6  1  0  0  0  0
  6  7  2  0  0  0  0
  7  8  1  0  0  0  0
  7 42  1  0  0  0  0
  8 43  1  0  0  0  0
  9  6  1  0  0  0  0
 10 11  1  0  0  0  0
 10  9  1  0  0  0  0
 11 12  1  0  0  0  0
 11 46  1  0  0  0  0
 12 13  1  0  0  0  0
 13 15  1  0  0  0  0
 13 14  2  0  0  0  0
 15 50  1  0  0  0  0
 16 51  1  6  0  0  0
 16 17  1  0  0  0  0
 16 20  1  0  0  0  0
 16 15  1  0  0  0  0
 17 18  2  0  0  0  0
 19 17  1  0  0  0  0
 19 52  1  0  0  0  0
 19  1  1  0  0  0  0
 20 54  1  0  0  0  0
 20 53  1  0  0  0  0
 21 23  1  0  0  0  0
 21 20  1  0  0  0  0
 22 21  2  0  0  0  0
 23 55  1  0  0  0  0
 24 57  1  6  0  0  0
 24 26  1  0  0  0  0
 24  1  1  0  0  0  0
 25 24  1  0  0  0  0
 26 27  1  0  0  0  0
 27 61  1  0  0  0  0
 28 27  1  0  0  0  0
 28 29  2  0  0  0  0
 30 28  2  0  0  0  0
 31 28  1  0  0  0  0
 31 36  2  0  0  0  0
 32 31  1  0  0  0  0
 33 32  2  0  0  0  0
 33 34  1  0  0  0  0
 34 35  2  0  0  0  0
 35 36  1  0  0  0  0
 35 65  1  0  0  0  0
 36 66  1  0  0  0  0
 39  2  1  0  0  0  0
 40  4  1  0  0  0  0
 41  5  1  0  0  0  0
 44 10  1  0  0  0  0
 45 10  1  0  0  0  0
 47 11  1  0  0  0  0
 48 12  1  0  0  0  0
 49 12  1  0  0  0  0
 56 23  1  0  0  0  0
 58 25  1  0  0  0  0
 59 26  1  0  0  0  0
 60 26  1  0  0  0  0
 62 32  1  0  0  0  0
 63 33  1  0  0  0  0
 64 34  1  0  0  0  0
M  END
