omegapdb_1z1r_28.log
 OpenBabel09261812563D

 66 68  0  0  1  0  0  0  0  0999 V2000
    0.1001   -0.7785   -1.6145 C   0  0  2  0  0  0  0  0  0  0  0  0
    0.1802   -2.2784   -1.2645 C   0  0  0  0  0  0  0  0  0  0  0  0
    1.5938   -2.6638   -0.9080 C   0  0  0  0  0  0  0  0  0  0  0  0
    2.5810   -2.7076   -1.8969 C   0  0  0  0  0  0  0  0  0  0  0  0
    3.9250   -2.7658   -1.5595 C   0  0  0  0  0  0  0  0  0  0  0  0
    4.3041   -2.7692   -0.2161 C   0  0  0  0  0  0  0  0  0  0  0  0
    3.3313   -2.8599    0.7777 C   0  0  0  0  0  0  0  0  0  0  0  0
    1.9867   -2.7977    0.4237 C   0  0  0  0  0  0  0  0  0  0  0  0
    5.6345   -2.6495    0.0626 O   0  0  0  0  0  0  0  0  0  0  0  0
    5.9745   -1.6264    1.0048 C   0  0  0  0  0  0  0  0  0  0  0  0
    5.7755   -0.2041    0.4737 C   0  0  0  0  0  0  0  0  0  0  0  0
    4.3485    0.3357    0.2806 C   0  0  0  0  0  0  0  0  0  0  0  0
    3.5456    0.4078    1.5664 C   0  0  0  0  0  0  0  0  0  0  0  0
    3.9471   -0.0542    2.6208 O   0  0  0  0  0  0  0  0  0  0  0  0
    2.2756    0.9668    1.5294 N   0  0  0  0  0  0  0  0  0  0  0  0
    1.7061    1.9350    0.5963 C   0  0  2  0  0  0  0  0  0  0  0  0
    1.0336    1.2925   -0.6295 C   0  0  0  0  0  0  0  0  0  0  0  0
    0.7288    1.9932   -1.6032 O   0  0  0  0  0  0  0  0  0  0  0  0
    0.7157   -0.0040   -0.5317 N   0  0  0  0  0  0  0  0  0  0  0  0
    2.6322    3.1127    0.2057 C   0  0  0  0  0  0  0  0  0  0  0  0
    1.9700    4.4892    0.2982 C   0  0  0  0  0  0  0  0  0  0  0  0
    2.4530    5.3784    0.9767 O   0  0  0  0  0  0  0  0  0  0  0  0
    0.8178    4.6194   -0.4071 N   0  0  0  0  0  0  0  0  0  0  0  0
   -1.3408   -0.3408   -1.9535 C   0  0  2  0  0  0  0  0  0  0  0  0
   -1.3767    0.7100   -2.8950 O   0  0  0  0  0  0  0  0  0  0  0  0
   -2.1670    0.0272   -0.7213 C   0  0  0  0  0  0  0  0  0  0  0  0
   -3.5084    0.3628   -1.1876 N   0  0  0  0  0  0  0  0  0  0  0  0
   -4.5643    1.0009   -0.0692 S   0  0  0  0  0  0  0  0  0  0  0  0
   -3.8356    1.6901    0.9893 O   0  0  0  0  0  0  0  0  0  0  0  0
   -5.5801    1.6886   -0.8484 O   0  0  0  0  0  0  0  0  0  0  0  0
   -5.2690   -0.4628    0.6514 C   0  0  0  0  0  0  0  0  0  0  0  0
   -6.1013   -1.2647   -0.1265 C   0  0  0  0  0  0  0  0  0  0  0  0
   -6.6643   -2.3990    0.4424 C   0  0  0  0  0  0  0  0  0  0  0  0
   -6.3971   -2.7187    1.7737 C   0  0  0  0  0  0  0  0  0  0  0  0
   -5.5696   -1.9059    2.5410 C   0  0  0  0  0  0  0  0  0  0  0  0
   -4.9990   -0.7657    1.9801 C   0  0  0  0  0  0  0  0  0  0  0  0
    0.6884   -0.6053   -2.5252 H   0  0  0  0  0  0  0  0  0  0  0  0
   -0.1794   -2.8397   -2.1339 H   0  0  0  0  0  0  0  0  0  0  0  0
   -0.5012   -2.5030   -0.4330 H   0  0  0  0  0  0  0  0  0  0  0  0
    2.2964   -2.6383   -2.9458 H   0  0  0  0  0  0  0  0  0  0  0  0
    4.7014   -2.7412   -2.3186 H   0  0  0  0  0  0  0  0  0  0  0  0
    3.6161   -2.9155    1.8236 H   0  0  0  0  0  0  0  0  0  0  0  0
    1.2307   -2.8199    1.2083 H   0  0  0  0  0  0  0  0  0  0  0  0
    5.4416   -1.7622    1.9484 H   0  0  0  0  0  0  0  0  0  0  0  0
    7.0404   -1.7814    1.1907 H   0  0  0  0  0  0  0  0  0  0  0  0
    6.2981   -0.1243   -0.4871 H   0  0  0  0  0  0  0  0  0  0  0  0
    6.2958    0.4612    1.1733 H   0  0  0  0  0  0  0  0  0  0  0  0
    4.4264    1.3404   -0.1498 H   0  0  0  0  0  0  0  0  0  0  0  0
    3.7793   -0.2543   -0.4485 H   0  0  0  0  0  0  0  0  0  0  0  0
    1.9020    1.0111    2.4694 H   0  0  0  0  0  0  0  0  0  0  0  0
    0.8537    2.3655    1.1379 H   0  0  0  0  0  0  0  0  0  0  0  0
    1.0955   -0.4974    0.2677 H   0  0  0  0  0  0  0  0  0  0  0  0
    3.4753    3.1555    0.8975 H   0  0  0  0  0  0  0  0  0  0  0  0
    3.0174    2.9788   -0.8113 H   0  0  0  0  0  0  0  0  0  0  0  0
    0.5519    3.9106   -1.0804 H   0  0  0  0  0  0  0  0  0  0  0  0
    0.3871    5.5311   -0.4341 H   0  0  0  0  0  0  0  0  0  0  0  0
   -1.8313   -1.1887   -2.4478 H   0  0  0  0  0  0  0  0  0  0  0  0
   -0.7045    1.3603   -2.6155 H   0  0  0  0  0  0  0  0  0  0  0  0
   -2.2315   -0.8206   -0.0271 H   0  0  0  0  0  0  0  0  0  0  0  0
   -1.7070    0.8685   -0.1874 H   0  0  0  0  0  0  0  0  0  0  0  0
   -3.4721    0.9733   -2.0039 H   0  0  0  0  0  0  0  0  0  0  0  0
   -6.3030   -0.9942   -1.1590 H   0  0  0  0  0  0  0  0  0  0  0  0
   -7.3168   -3.0338   -0.1505 H   0  0  0  0  0  0  0  0  0  0  0  0
   -6.8430   -3.6064    2.2150 H   0  0  0  0  0  0  0  0  0  0  0  0
   -5.3713   -2.1532    3.5802 H   0  0  0  0  0  0  0  0  0  0  0  0
   -4.3606   -0.1047    2.5585 H   0  0  0  0  0  0  0  0  0  0  0  0
  1 37  1  6  0  0  0
  1  2  1  0  0  0  0
  1 19  1  0  0  0  0
  2  3  1  0  0  0  0
  2 39  1  0  0  0  0
  3  8  2  0  0  0  0
  4  5  2  0  0  0  0
  4  3  1  0  0  0  0
  5  6  1  0  0  0  0
  6  9  1  0  0  0  0
  6  7  2  0  0  0  0
  7 42  1  0  0  0  0
  8  7  1  0  0  0  0
  8 43  1  0  0  0  0
  9 10  1  0  0  0  0
 10 45  1  0  0  0  0
 10 44  1  0  0  0  0
 11 10  1  0  0  0  0
 11 47  1  0  0  0  0
 12 11  1  0  0  0  0
 12 13  1  0  0  0  0
 13 14  2  0  0  0  0
 15 13  1  0  0  0  0
 15 50  1  0  0  0  0
 16 51  1  1  0  0  0
 16 15  1  0  0  0  0
 17 19  1  0  0  0  0
 17 16  1  0  0  0  0
 18 17  2  0  0  0  0
 19 52  1  0  0  0  0
 20 21  1  0  0  0  0
 20 16  1  0  0  0  0
 20 53  1  0  0  0  0
 21 22  2  0  0  0  0
 23 21  1  0  0  0  0
 24 57  1  6  0  0  0
 24  1  1  0  0  0  0
 24 26  1  0  0  0  0
 25 58  1  0  0  0  0
 25 24  1  0  0  0  0
 26 60  1  0  0  0  0
 26 59  1  0  0  0  0
 27 26  1  0  0  0  0
 27 28  1  0  0  0  0
 28 31  1  0  0  0  0
 28 29  2  0  0  0  0
 30 28  2  0  0  0  0
 31 36  2  0  0  0  0
 32 33  2  0  0  0  0
 32 31  1  0  0  0  0
 33 34  1  0  0  0  0
 34 64  1  0  0  0  0
 34 35  2  0  0  0  0
 35 65  1  0  0  0  0
 36 35  1  0  0  0  0
 36 66  1  0  0  0  0
 38  2  1  0  0  0  0
 40  4  1  0  0  0  0
 41  5  1  0  0  0  0
 46 11  1  0  0  0  0
 48 12  1  0  0  0  0
 49 12  1  0  0  0  0
 54 20  1  0  0  0  0
 55 23  1  0  0  0  0
 56 23  1  0  0  0  0
 61 27  1  0  0  0  0
 62 32  1  0  0  0  0
 63 33  1  0  0  0  0
M  END
