omegapdb_1xom_15.log
 OpenBabel09261812563D

 50 52  0  0  1  0  0  0  0  0999 V2000
   -5.7700   -2.4935    0.3906 O   0  0  0  0  0  0  0  0  0  0  0  0
   -5.4800   -1.3566   -0.2869 C   0  0  0  0  0  0  0  0  0  0  0  0
   -6.3610   -0.7235   -0.8021 O   0  0  0  0  0  0  0  0  0  0  0  0
   -4.0050   -0.9747   -0.3252 C   0  0  1  0  0  0  0  0  0  0  0  0
   -3.7858    0.2459   -1.2190 C   0  0  0  0  0  0  0  0  0  0  0  0
   -2.3119    0.6464   -1.2666 C   0  0  0  0  0  0  0  0  0  0  0  0
   -1.7134    0.9066    0.1398 C   0  0  2  0  0  0  0  0  0  0  0  0
   -1.9792   -0.3223    1.0466 C   0  0  0  0  0  0  0  0  0  0  0  0
   -3.4560   -0.7167    1.0903 C   0  0  0  0  0  0  0  0  0  0  0  0
   -2.4308    2.0551    0.7321 C   0  0  0  0  0  0  0  0  0  0  0  0
   -3.0194    2.9350    1.1996 N   0  0  0  0  0  0  0  0  0  0  0  0
   -0.2160    1.2146    0.0522 C   0  0  0  0  0  0  0  0  0  0  0  0
    0.3254    2.4328    0.4391 C   0  0  0  0  0  0  0  0  0  0  0  0
    1.6958    2.6804    0.3303 C   0  0  0  0  0  0  0  0  0  0  0  0
    2.5527    1.7078   -0.1696 C   0  0  0  0  0  0  0  0  0  0  0  0
    3.8929    1.8563   -0.3295 O   0  0  0  0  0  0  0  0  0  0  0  0
    4.4551    3.1066    0.0120 C   0  0  0  0  0  0  0  0  0  0  0  0
    2.0162    0.4616   -0.5538 C   0  0  0  0  0  0  0  0  0  0  0  0
    0.6562    0.2357   -0.4427 C   0  0  0  0  0  0  0  0  0  0  0  0
    2.8121   -0.5098   -1.0960 O   0  0  0  0  0  0  0  0  0  0  0  0
    3.7045   -1.1540   -0.1862 C   0  0  0  0  0  0  0  0  0  0  0  0
    4.6390   -2.0716   -0.9713 C   0  0  0  0  0  0  0  0  0  0  0  0
    5.0996   -3.1409    0.0450 C   0  0  0  0  0  0  0  0  0  0  0  0
    4.1799   -2.9751    1.2835 C   0  0  0  0  0  0  0  0  0  0  0  0
    3.0192   -2.0976    0.8023 C   0  0  0  0  0  0  0  0  0  0  0  0
   -4.9578   -2.8961    0.7275 H   0  0  0  0  0  0  0  0  0  0  0  0
   -3.4584   -1.8323   -0.7523 H   0  0  0  0  0  0  0  0  0  0  0  0
   -4.1496    0.0357   -2.2295 H   0  0  0  0  0  0  0  0  0  0  0  0
   -4.3967    1.0741   -0.8409 H   0  0  0  0  0  0  0  0  0  0  0  0
   -1.7221   -0.1534   -1.7324 H   0  0  0  0  0  0  0  0  0  0  0  0
   -2.1756    1.5401   -1.8846 H   0  0  0  0  0  0  0  0  0  0  0  0
   -1.6070   -0.1145    2.0556 H   0  0  0  0  0  0  0  0  0  0  0  0
   -1.3888   -1.1595    0.6541 H   0  0  0  0  0  0  0  0  0  0  0  0
   -4.0432    0.0819    1.5623 H   0  0  0  0  0  0  0  0  0  0  0  0
   -3.5650   -1.6017    1.7305 H   0  0  0  0  0  0  0  0  0  0  0  0
   -0.3164    3.2176    0.8299 H   0  0  0  0  0  0  0  0  0  0  0  0
    2.0783    3.6490    0.6347 H   0  0  0  0  0  0  0  0  0  0  0  0
    5.5218    3.0242   -0.2007 H   0  0  0  0  0  0  0  0  0  0  0  0
    4.3125    3.3333    1.0763 H   0  0  0  0  0  0  0  0  0  0  0  0
    4.0248    3.9154   -0.5918 H   0  0  0  0  0  0  0  0  0  0  0  0
    0.2970   -0.7373   -0.7694 H   0  0  0  0  0  0  0  0  0  0  0  0
    4.2785   -0.3920    0.3565 H   0  0  0  0  0  0  0  0  0  0  0  0
    4.0520   -2.5229   -1.7796 H   0  0  0  0  0  0  0  0  0  0  0  0
    5.4649   -1.5241   -1.4339 H   0  0  0  0  0  0  0  0  0  0  0  0
    6.1513   -3.0108    0.3187 H   0  0  0  0  0  0  0  0  0  0  0  0
    5.0099   -4.1442   -0.3831 H   0  0  0  0  0  0  0  0  0  0  0  0
    4.7200   -2.4612    2.0878 H   0  0  0  0  0  0  0  0  0  0  0  0
    3.8416   -3.9328    1.6905 H   0  0  0  0  0  0  0  0  0  0  0  0
    2.4979   -1.5776    1.6129 H   0  0  0  0  0  0  0  0  0  0  0  0
    2.2814   -2.6949    0.2492 H   0  0  0  0  0  0  0  0  0  0  0  0
  1 26  1  0  0  0  0
  2  1  1  0  0  0  0
  3  2  2  0  0  0  0
  4 27  1  6  0  0  0
  4  2  1  0  0  0  0
  4  9  1  0  0  0  0
  5 29  1  0  0  0  0
  5  4  1  0  0  0  0
  6  5  1  0  0  0  0
  6  7  1  0  0  0  0
  7 10  1  1  0  0  0
  7  8  1  0  0  0  0
  8  9  1  0  0  0  0
  8 32  1  0  0  0  0
  9 34  1  0  0  0  0
  9 35  1  0  0  0  0
 10 11  3  0  0  0  0
 12  7  1  0  0  0  0
 12 13  2  0  0  0  0
 13 36  1  0  0  0  0
 14 13  1  0  0  0  0
 14 37  1  0  0  0  0
 15 14  2  0  0  0  0
 16 15  1  0  0  0  0
 16 17  1  0  0  0  0
 17 39  1  0  0  0  0
 18 19  2  0  0  0  0
 18 15  1  0  0  0  0
 19 12  1  0  0  0  0
 20 18  1  0  0  0  0
 20 21  1  0  0  0  0
 21 42  1  0  0  0  0
 21 25  1  0  0  0  0
 22 21  1  0  0  0  0
 22 23  1  0  0  0  0
 23 45  1  0  0  0  0
 23 24  1  0  0  0  0
 24 48  1  0  0  0  0
 24 47  1  0  0  0  0
 25 24  1  0  0  0  0
 25 49  1  0  0  0  0
 28  5  1  0  0  0  0
 30  6  1  0  0  0  0
 31  6  1  0  0  0  0
 33  8  1  0  0  0  0
 38 17  1  0  0  0  0
 40 17  1  0  0  0  0
 41 19  1  0  0  0  0
 43 22  1  0  0  0  0
 44 22  1  0  0  0  0
 46 23  1  0  0  0  0
 50 25  1  0  0  0  0
M  END
