omegapdb_1gs5_16.log
 OpenBabel09261812563D

 24 23  0  0  1  0  0  0  0  0999 V2000
   -0.3791   -0.6778   -0.3417 C   0  0  2  0  0  0  0  0  0  0  0  0
   -1.7816   -1.2712   -0.2532 C   0  0  0  0  0  0  0  0  0  0  0  0
   -2.7876   -0.7349   -0.6474 O   0  0  0  0  0  0  0  0  0  0  0  0
   -1.7711   -2.5088    0.2735 O   0  0  0  0  0  0  0  0  0  0  0  0
    0.4659   -0.9925    0.9070 C   0  0  0  0  0  0  0  0  0  0  0  0
    1.7150   -0.1288    1.0149 C   0  0  0  0  0  0  0  0  0  0  0  0
    2.6347   -0.2213   -0.1874 C   0  0  0  0  0  0  0  0  0  0  0  0
    2.4894   -0.9783   -1.1125 O   0  0  0  0  0  0  0  0  0  0  0  0
    3.6924    0.6208   -0.1686 O   0  0  0  0  0  0  0  0  0  0  0  0
   -0.4602    0.7310   -0.6751 N   0  0  0  0  0  0  0  0  0  0  0  0
   -1.0827    1.6118    0.1762 C   0  0  0  0  0  0  0  0  0  0  0  0
   -1.2596    1.3550    1.3551 O   0  0  0  0  0  0  0  0  0  0  0  0
   -1.5137    2.9173   -0.4550 C   0  0  0  0  0  0  0  0  0  0  0  0
    0.1154   -1.1643   -1.1888 H   0  0  0  0  0  0  0  0  0  0  0  0
   -2.6934   -2.8142    0.2628 H   0  0  0  0  0  0  0  0  0  0  0  0
    0.7434   -2.0495    0.8607 H   0  0  0  0  0  0  0  0  0  0  0  0
   -0.1328   -0.8382    1.8064 H   0  0  0  0  0  0  0  0  0  0  0  0
    2.2896   -0.4284    1.9022 H   0  0  0  0  0  0  0  0  0  0  0  0
    1.4281    0.9187    1.1686 H   0  0  0  0  0  0  0  0  0  0  0  0
    3.6676    1.1630    0.6321 H   0  0  0  0  0  0  0  0  0  0  0  0
   -0.5400    0.9342   -1.6610 H   0  0  0  0  0  0  0  0  0  0  0  0
   -1.6177    3.6725    0.3250 H   0  0  0  0  0  0  0  0  0  0  0  0
   -2.4896    2.7692   -0.9303 H   0  0  0  0  0  0  0  0  0  0  0  0
   -0.8079    3.2640   -1.2164 H   0  0  0  0  0  0  0  0  0  0  0  0
  1 14  1  6  0  0  0
  1  2  1  0  0  0  0
  1  5  1  0  0  0  0
  2  4  1  0  0  0  0
  3  2  2  0  0  0  0
  5  6  1  0  0  0  0
  5 17  1  0  0  0  0
  6 19  1  0  0  0  0
  6 18  1  0  0  0  0
  7  9  1  0  0  0  0
  7  6  1  0  0  0  0
  8  7  2  0  0  0  0
  9 20  1  0  0  0  0
 10  1  1  0  0  0  0
 10 11  1  0  0  0  0
 11 12  2  0  0  0  0
 13 11  1  0  0  0  0
 13 22  1  0  0  0  0
 15  4  1  0  0  0  0
 16  5  1  0  0  0  0
 21 10  1  0  0  0  0
 23 13  1  0  0  0  0
 24 13  1  0  0  0  0
M  END
