omegapdb_1qxw_17.log
 OpenBabel09261812563D

 36 36  0  0  1  0  0  0  0  0999 V2000
    4.2109   -0.1221   -1.0715 C   0  0  0  0  0  0  0  0  0  0  0  0
    4.6768   -0.7036    0.2403 C   0  0  0  0  0  0  0  0  0  0  0  0
    3.2829   -0.9608   -0.2283 C   0  0  0  0  0  0  0  0  0  0  0  0
    2.1782   -0.3836    0.4867 N   0  0  0  0  0  0  0  0  0  0  0  0
    1.0736    0.0425   -0.3598 C   0  0  0  0  0  0  0  0  0  0  0  0
   -0.0337    0.5456    0.5790 C   0  0  0  0  0  0  0  0  0  0  0  0
   -1.3198    1.0216   -0.1331 C   0  0  1  0  0  0  0  0  0  0  0  0
   -1.0604    2.3674   -0.6699 N   0  0  0  0  0  0  0  0  0  0  0  0
   -1.8874    0.0703   -1.1947 C   0  0  0  0  0  0  0  0  0  0  0  0
   -2.3086   -1.3301   -0.7332 C   0  0  0  0  0  0  0  0  0  0  0  0
   -3.3455   -1.3551    0.3942 C   0  0  0  0  0  0  0  0  0  0  0  0
   -4.6361   -0.6041    0.0695 C   0  0  0  0  0  0  0  0  0  0  0  0
   -0.3852   -0.4848    1.4515 O   0  0  0  0  0  0  0  0  0  0  0  0
    0.4942    1.6224    1.3272 O   0  0  0  0  0  0  0  0  0  0  0  0
    4.0266    0.9495   -1.1037 H   0  0  0  0  0  0  0  0  0  0  0  0
    4.6063   -0.5390   -1.9938 H   0  0  0  0  0  0  0  0  0  0  0  0
    5.3896   -1.5228    0.2254 H   0  0  0  0  0  0  0  0  0  0  0  0
    4.8074   -0.0189    1.0752 H   0  0  0  0  0  0  0  0  0  0  0  0
    3.0674   -1.9630   -0.5961 H   0  0  0  0  0  0  0  0  0  0  0  0
    2.4760    0.4192    1.0361 H   0  0  0  0  0  0  0  0  0  0  0  0
    0.7239   -0.8235   -0.9346 H   0  0  0  0  0  0  0  0  0  0  0  0
    1.3574    0.8333   -1.0773 H   0  0  0  0  0  0  0  0  0  0  0  0
   -2.0469    1.1455    0.6789 H   0  0  0  0  0  0  0  0  0  0  0  0
   -1.9311    2.8794   -0.7702 H   0  0  0  0  0  0  0  0  0  0  0  0
   -0.6559    2.3010   -1.6013 H   0  0  0  0  0  0  0  0  0  0  0  0
   -1.1531   -0.0260   -2.0086 H   0  0  0  0  0  0  0  0  0  0  0  0
   -2.7551    0.5753   -1.6424 H   0  0  0  0  0  0  0  0  0  0  0  0
   -1.4269   -1.8902   -0.4049 H   0  0  0  0  0  0  0  0  0  0  0  0
   -2.7166   -1.8580   -1.6070 H   0  0  0  0  0  0  0  0  0  0  0  0
   -2.8915   -0.9550    1.3080 H   0  0  0  0  0  0  0  0  0  0  0  0
   -3.5869   -2.4038    0.6101 H   0  0  0  0  0  0  0  0  0  0  0  0
   -5.0798   -0.9646   -0.8672 H   0  0  0  0  0  0  0  0  0  0  0  0
   -5.3797   -0.7357    0.8627 H   0  0  0  0  0  0  0  0  0  0  0  0
   -4.4665    0.4741   -0.0397 H   0  0  0  0  0  0  0  0  0  0  0  0
    0.4602   -0.9077    1.6859 H   0  0  0  0  0  0  0  0  0  0  0  0
    0.2005    2.4177    0.8421 H   0  0  0  0  0  0  0  0  0  0  0  0
  1  3  1  0  0  0  0
  1  2  1  0  0  0  0
  2 18  1  0  0  0  0
  3  2  1  0  0  0  0
  3  4  1  0  0  0  0
  4 20  1  0  0  0  0
  5  4  1  0  0  0  0
  5  6  1  0  0  0  0
  6 14  1  0  0  0  0
  6 13  1  0  0  0  0
  7  6  1  0  0  0  0
  7 23  1  1  0  0  0
  8  7  1  0  0  0  0
  9 10  1  0  0  0  0
  9  7  1  0  0  0  0
 10 28  1  0  0  0  0
 10 11  1  0  0  0  0
 11 31  1  0  0  0  0
 11 30  1  0  0  0  0
 12 11  1  0  0  0  0
 12 33  1  0  0  0  0
 13 35  1  0  0  0  0
 15  1  1  0  0  0  0
 16  1  1  0  0  0  0
 17  2  1  0  0  0  0
 19  3  1  0  0  0  0
 21  5  1  0  0  0  0
 22  5  1  0  0  0  0
 24  8  1  0  0  0  0
 25  8  1  0  0  0  0
 26  9  1  0  0  0  0
 27  9  1  0  0  0  0
 29 10  1  0  0  0  0
 32 12  1  0  0  0  0
 34 12  1  0  0  0  0
 36 14  1  0  0  0  0
M  END
