omegapdb_1z1r_10.log
 OpenBabel09261812563D

 66 68  0  0  1  0  0  0  0  0999 V2000
   -0.1645   -1.9198    0.1056 C   0  0  2  0  0  0  0  0  0  0  0  0
   -1.1398   -3.1111    0.0372 C   0  0  0  0  0  0  0  0  0  0  0  0
   -2.5392   -2.6263    0.3486 C   0  0  0  0  0  0  0  0  0  0  0  0
   -2.8277   -2.0276    1.5777 C   0  0  0  0  0  0  0  0  0  0  0  0
   -4.0213   -1.3498    1.7916 C   0  0  0  0  0  0  0  0  0  0  0  0
   -4.9594   -1.2560    0.7612 C   0  0  0  0  0  0  0  0  0  0  0  0
   -4.7247   -1.9220   -0.4402 C   0  0  0  0  0  0  0  0  0  0  0  0
   -3.5218   -2.5915   -0.6406 C   0  0  0  0  0  0  0  0  0  0  0  0
   -6.1265   -0.5565    0.8837 O   0  0  0  0  0  0  0  0  0  0  0  0
   -6.0519    0.7988    1.3414 C   0  0  0  0  0  0  0  0  0  0  0  0
   -5.8547    1.7834    0.1922 C   0  0  0  0  0  0  0  0  0  0  0  0
   -4.4508    1.7846   -0.4145 C   0  0  0  0  0  0  0  0  0  0  0  0
   -3.4304    2.4512    0.5018 C   0  0  0  0  0  0  0  0  0  0  0  0
   -3.7590    2.9979    1.5415 O   0  0  0  0  0  0  0  0  0  0  0  0
   -2.1162    2.4905    0.0820 N   0  0  0  0  0  0  0  0  0  0  0  0
   -1.5072    1.5313   -0.8120 C   0  0  2  0  0  0  0  0  0  0  0  0
   -0.8144    0.4409    0.0139 C   0  0  0  0  0  0  0  0  0  0  0  0
   -0.3205    0.6989    1.1059 O   0  0  0  0  0  0  0  0  0  0  0  0
   -0.7200   -0.7703   -0.5822 N   0  0  0  0  0  0  0  0  0  0  0  0
   -0.4545    2.1621   -1.7370 C   0  0  0  0  0  0  0  0  0  0  0  0
   -0.0683    1.1620   -2.8239 C   0  0  0  0  0  0  0  0  0  0  0  0
   -0.9186    0.4429   -3.3426 O   0  0  0  0  0  0  0  0  0  0  0  0
    1.2328    1.1245   -3.1792 N   0  0  0  0  0  0  0  0  0  0  0  0
    1.2411   -2.2126   -0.4407 C   0  0  2  0  0  0  0  0  0  0  0  0
    1.8033   -3.3969    0.1007 O   0  0  0  0  0  0  0  0  0  0  0  0
    2.1560   -1.0179   -0.1882 C   0  0  0  0  0  0  0  0  0  0  0  0
    3.4106   -1.1827   -0.9089 N   0  0  0  0  0  0  0  0  0  0  0  0
    4.4403    0.1111   -0.9885 S   0  0  0  0  0  0  0  0  0  0  0  0
    5.6128   -0.3489   -1.7067 O   0  0  0  0  0  0  0  0  0  0  0  0
    3.6423    1.2396   -1.4596 O   0  0  0  0  0  0  0  0  0  0  0  0
    4.9223    0.4932    0.6797 C   0  0  0  0  0  0  0  0  0  0  0  0
    6.1243   -0.0141    1.1654 C   0  0  0  0  0  0  0  0  0  0  0  0
    6.4835    0.2505    2.4826 C   0  0  0  0  0  0  0  0  0  0  0  0
    5.6454    1.0089    3.2961 C   0  0  0  0  0  0  0  0  0  0  0  0
    4.4471    1.5140    2.7974 C   0  0  0  0  0  0  0  0  0  0  0  0
    4.0789    1.2613    1.4805 C   0  0  0  0  0  0  0  0  0  0  0  0
   -0.0668   -1.6057    1.1526 H   0  0  0  0  0  0  0  0  0  0  0  0
   -0.8006   -3.8856    0.7337 H   0  0  0  0  0  0  0  0  0  0  0  0
   -1.1094   -3.5588   -0.9649 H   0  0  0  0  0  0  0  0  0  0  0  0
   -2.0898   -2.0521    2.3779 H   0  0  0  0  0  0  0  0  0  0  0  0
   -4.2144   -0.8769    2.7502 H   0  0  0  0  0  0  0  0  0  0  0  0
   -5.4763   -1.8657   -1.2225 H   0  0  0  0  0  0  0  0  0  0  0  0
   -3.3312   -3.0618   -1.6040 H   0  0  0  0  0  0  0  0  0  0  0  0
   -5.2620    0.9227    2.0897 H   0  0  0  0  0  0  0  0  0  0  0  0
   -7.0129    0.9861    1.8284 H   0  0  0  0  0  0  0  0  0  0  0  0
   -6.0770    2.7875    0.5686 H   0  0  0  0  0  0  0  0  0  0  0  0
   -6.5877    1.5470   -0.5876 H   0  0  0  0  0  0  0  0  0  0  0  0
   -4.1396    0.7612   -0.6506 H   0  0  0  0  0  0  0  0  0  0  0  0
   -4.4503    2.3273   -1.3692 H   0  0  0  0  0  0  0  0  0  0  0  0
   -1.5040    2.7820    0.8375 H   0  0  0  0  0  0  0  0  0  0  0  0
   -2.2688    1.0946   -1.4595 H   0  0  0  0  0  0  0  0  0  0  0  0
   -1.1485   -0.8892   -1.4931 H   0  0  0  0  0  0  0  0  0  0  0  0
   -0.8940    3.0407   -2.2220 H   0  0  0  0  0  0  0  0  0  0  0  0
    0.4177    2.4992   -1.1633 H   0  0  0  0  0  0  0  0  0  0  0  0
    1.9805    1.5179   -2.6188 H   0  0  0  0  0  0  0  0  0  0  0  0
    1.4966    0.4278   -3.8617 H   0  0  0  0  0  0  0  0  0  0  0  0
    1.1800   -2.3902   -1.5210 H   0  0  0  0  0  0  0  0  0  0  0  0
    1.8119   -3.3041    1.0642 H   0  0  0  0  0  0  0  0  0  0  0  0
    1.6868   -0.1047   -0.5554 H   0  0  0  0  0  0  0  0  0  0  0  0
    2.3070   -0.9023    0.8983 H   0  0  0  0  0  0  0  0  0  0  0  0
    3.9007   -2.0529   -0.7201 H   0  0  0  0  0  0  0  0  0  0  0  0
    6.7702   -0.5887    0.5080 H   0  0  0  0  0  0  0  0  0  0  0  0
    7.4226   -0.1321    2.8725 H   0  0  0  0  0  0  0  0  0  0  0  0
    5.9303    1.2128    4.3249 H   0  0  0  0  0  0  0  0  0  0  0  0
    3.7991    2.1124    3.4314 H   0  0  0  0  0  0  0  0  0  0  0  0
    3.1557    1.6646    1.0738 H   0  0  0  0  0  0  0  0  0  0  0  0
  1 37  1  1  0  0  0
  2  1  1  0  0  0  0
  2  3  1  0  0  0  0
  2 38  1  0  0  0  0
  3  4  2  0  0  0  0
  4  5  1  0  0  0  0
  4 40  1  0  0  0  0
  5 41  1  0  0  0  0
  6  9  1  0  0  0  0
  6  5  2  0  0  0  0
  7  6  1  0  0  0  0
  8  7  2  0  0  0  0
  8  3  1  0  0  0  0
  9 10  1  0  0  0  0
 10 45  1  0  0  0  0
 10 44  1  0  0  0  0
 11 46  1  0  0  0  0
 11 10  1  0  0  0  0
 12 11  1  0  0  0  0
 12 13  1  0  0  0  0
 13 14  2  0  0  0  0
 15 13  1  0  0  0  0
 15 50  1  0  0  0  0
 16 51  1  6  0  0  0
 16 17  1  0  0  0  0
 16 15  1  0  0  0  0
 17 18  2  0  0  0  0
 19 17  1  0  0  0  0
 19  1  1  0  0  0  0
 20 54  1  0  0  0  0
 20 16  1  0  0  0  0
 21 20  1  0  0  0  0
 22 21  2  0  0  0  0
 23 21  1  0  0  0  0
 23 55  1  0  0  0  0
 24 57  1  6  0  0  0
 24 26  1  0  0  0  0
 24 25  1  0  0  0  0
 24  1  1  0  0  0  0
 25 58  1  0  0  0  0
 26 60  1  0  0  0  0
 27 61  1  0  0  0  0
 27 26  1  0  0  0  0
 28 27  1  0  0  0  0
 28 31  1  0  0  0  0
 29 28  2  0  0  0  0
 30 28  2  0  0  0  0
 31 32  2  0  0  0  0
 31 36  1  0  0  0  0
 32 33  1  0  0  0  0
 33 63  1  0  0  0  0
 33 34  2  0  0  0  0
 34 64  1  0  0  0  0
 35 34  1  0  0  0  0
 35 65  1  0  0  0  0
 36 35  2  0  0  0  0
 39  2  1  0  0  0  0
 42  7  1  0  0  0  0
 43  8  1  0  0  0  0
 47 11  1  0  0  0  0
 48 12  1  0  0  0  0
 49 12  1  0  0  0  0
 52 19  1  0  0  0  0
 53 20  1  0  0  0  0
 56 23  1  0  0  0  0
 59 26  1  0  0  0  0
 62 32  1  0  0  0  0
 66 36  1  0  0  0  0
M  END
