omegapdb_1qxw_12.log
 OpenBabel09261812563D

 36 36  0  0  1  0  0  0  0  0999 V2000
   -5.1550   -0.5919    0.0665 C   0  0  0  0  0  0  0  0  0  0  0  0
   -4.7394    0.5465   -0.8315 C   0  0  0  0  0  0  0  0  0  0  0  0
   -3.9461    0.2153    0.4068 C   0  0  0  0  0  0  0  0  0  0  0  0
   -2.6441   -0.3931    0.3325 N   0  0  0  0  0  0  0  0  0  0  0  0
   -1.5961    0.4992   -0.1455 C   0  0  0  0  0  0  0  0  0  0  0  0
   -0.2595   -0.2246    0.0275 C   0  0  0  0  0  0  0  0  0  0  0  0
    0.9698    0.6687   -0.2484 C   0  0  1  0  0  0  0  0  0  0  0  0
    1.0900    1.7762    0.6962 N   0  0  0  0  0  0  0  0  0  0  0  0
    2.2662   -0.1502   -0.2400 C   0  0  0  0  0  0  0  0  0  0  0  0
    3.4933    0.6760   -0.6220 C   0  0  0  0  0  0  0  0  0  0  0  0
    4.7890   -0.1371   -0.6847 C   0  0  0  0  0  0  0  0  0  0  0  0
    5.2256   -0.7106    0.6631 C   0  0  0  0  0  0  0  0  0  0  0  0
   -0.1520   -0.7007    1.3413 O   0  0  0  0  0  0  0  0  0  0  0  0
   -0.3290   -1.3124   -0.8851 O   0  0  0  0  0  0  0  0  0  0  0  0
   -6.0445   -0.4775    0.6787 H   0  0  0  0  0  0  0  0  0  0  0  0
   -4.9974   -1.6040   -0.2995 H   0  0  0  0  0  0  0  0  0  0  0  0
   -5.3453    1.4483   -0.8421 H   0  0  0  0  0  0  0  0  0  0  0  0
   -4.2981    0.2890   -1.7916 H   0  0  0  0  0  0  0  0  0  0  0  0
   -4.0365    0.9072    1.2429 H   0  0  0  0  0  0  0  0  0  0  0  0
   -2.6622   -1.2101   -0.2728 H   0  0  0  0  0  0  0  0  0  0  0  0
   -1.7225    0.8041   -1.1963 H   0  0  0  0  0  0  0  0  0  0  0  0
   -1.6054    1.4014    0.4758 H   0  0  0  0  0  0  0  0  0  0  0  0
    0.8379    1.0937   -1.2533 H   0  0  0  0  0  0  0  0  0  0  0  0
    0.3650    2.4687    0.5375 H   0  0  0  0  0  0  0  0  0  0  0  0
    0.9483    1.4071    1.6341 H   0  0  0  0  0  0  0  0  0  0  0  0
    2.3926   -0.5860    0.7602 H   0  0  0  0  0  0  0  0  0  0  0  0
    2.1689   -0.9851   -0.9473 H   0  0  0  0  0  0  0  0  0  0  0  0
    3.6004    1.5006    0.0920 H   0  0  0  0  0  0  0  0  0  0  0  0
    3.3140    1.1395   -1.6027 H   0  0  0  0  0  0  0  0  0  0  0  0
    5.5886    0.5064   -1.0738 H   0  0  0  0  0  0  0  0  0  0  0  0
    4.6746   -0.9543   -1.4113 H   0  0  0  0  0  0  0  0  0  0  0  0
    5.3220    0.0848    1.4121 H   0  0  0  0  0  0  0  0  0  0  0  0
    6.1945   -1.2154    0.5836 H   0  0  0  0  0  0  0  0  0  0  0  0
    4.5048   -1.4408    1.0476 H   0  0  0  0  0  0  0  0  0  0  0  0
   -1.0669   -0.9360    1.5887 H   0  0  0  0  0  0  0  0  0  0  0  0
    0.3059   -1.9668   -0.5639 H   0  0  0  0  0  0  0  0  0  0  0  0
  1  3  1  0  0  0  0
  1 15  1  0  0  0  0
  2  1  1  0  0  0  0
  2  3  1  0  0  0  0
  3 19  1  0  0  0  0
  4  3  1  0  0  0  0
  5  6  1  0  0  0  0
  5  4  1  0  0  0  0
  5 22  1  0  0  0  0
  6 13  1  0  0  0  0
  7 23  1  6  0  0  0
  7  9  1  0  0  0  0
  7  6  1  0  0  0  0
  7  8  1  0  0  0  0
  8 25  1  0  0  0  0
  9 26  1  0  0  0  0
 10  9  1  0  0  0  0
 10 28  1  0  0  0  0
 11 10  1  0  0  0  0
 11 12  1  0  0  0  0
 12 34  1  0  0  0  0
 12 32  1  0  0  0  0
 13 35  1  0  0  0  0
 14 36  1  0  0  0  0
 14  6  1  0  0  0  0
 16  1  1  0  0  0  0
 17  2  1  0  0  0  0
 18  2  1  0  0  0  0
 20  4  1  0  0  0  0
 21  5  1  0  0  0  0
 24  8  1  0  0  0  0
 27  9  1  0  0  0  0
 29 10  1  0  0  0  0
 30 11  1  0  0  0  0
 31 11  1  0  0  0  0
 33 12  1  0  0  0  0
M  END
