omegapdb_2byh_15.log
 OpenBabel09261812563D

 40 42  0  0  0  0  0  0  0  0999 V2000
   -7.3129    0.4016   -0.3651 O   0  0  0  0  0  0  0  0  0  0  0  0
   -6.2688    0.5218   -0.9760 C   0  0  0  0  0  0  0  0  0  0  0  0
   -6.2625    0.7083   -2.4783 C   0  0  0  0  0  0  0  0  0  0  0  0
   -4.9574    0.4870   -0.2508 C   0  0  0  0  0  0  0  0  0  0  0  0
   -3.7278    0.6326   -0.8964 C   0  0  0  0  0  0  0  0  0  0  0  0
   -2.5391    0.6056   -0.1794 C   0  0  0  0  0  0  0  0  0  0  0  0
   -2.5637    0.3986    1.2019 C   0  0  0  0  0  0  0  0  0  0  0  0
   -3.7920    0.2535    1.8545 C   0  0  0  0  0  0  0  0  0  0  0  0
   -4.9740    0.3060    1.1343 C   0  0  0  0  0  0  0  0  0  0  0  0
   -1.3837    0.3831    1.9770 N   0  0  0  0  0  0  0  0  0  0  0  0
   -0.1076   -0.0426    1.6572 C   0  0  0  0  0  0  0  0  0  0  0  0
    0.8448    0.3752    2.2948 O   0  0  0  0  0  0  0  0  0  0  0  0
    0.0415   -1.0681    0.5995 C   0  0  0  0  0  0  0  0  0  0  0  0
   -0.8720   -2.0699    0.1819 C   0  0  0  0  0  0  0  0  0  0  0  0
   -0.3337   -2.8986   -0.6914 N   0  0  0  0  0  0  0  0  0  0  0  0
    0.9232   -2.4463   -0.8425 N   0  0  0  0  0  0  0  0  0  0  0  0
    1.2132   -1.3518   -0.0941 C   0  0  0  0  0  0  0  0  0  0  0  0
    2.5361   -0.7095   -0.1636 C   0  0  0  0  0  0  0  0  0  0  0  0
    2.6544    0.6803   -0.1912 C   0  0  0  0  0  0  0  0  0  0  0  0
    3.8890    1.2843   -0.3302 C   0  0  0  0  0  0  0  0  0  0  0  0
    4.0211    3.0223   -0.3817 Cl  0  0  0  0  0  0  0  0  0  0  0  0
    5.0559    0.5142   -0.4413 C   0  0  0  0  0  0  0  0  0  0  0  0
    6.2820    1.0525   -0.5869 O   0  0  0  0  0  0  0  0  0  0  0  0
    4.9521   -0.8712   -0.3884 C   0  0  0  0  0  0  0  0  0  0  0  0
    3.7118   -1.4763   -0.2419 C   0  0  0  0  0  0  0  0  0  0  0  0
    3.6975   -2.8410   -0.2034 O   0  0  0  0  0  0  0  0  0  0  0  0
   -7.2938    0.7097   -2.8339 H   0  0  0  0  0  0  0  0  0  0  0  0
   -5.7819    1.6542   -2.7521 H   0  0  0  0  0  0  0  0  0  0  0  0
   -5.7089   -0.0997   -2.9695 H   0  0  0  0  0  0  0  0  0  0  0  0
   -3.6848    0.7888   -1.9710 H   0  0  0  0  0  0  0  0  0  0  0  0
   -1.5911    0.7478   -0.6885 H   0  0  0  0  0  0  0  0  0  0  0  0
   -3.8071    0.0896    2.9294 H   0  0  0  0  0  0  0  0  0  0  0  0
   -5.9353    0.1946    1.6271 H   0  0  0  0  0  0  0  0  0  0  0  0
   -1.3900    0.9379    2.8236 H   0  0  0  0  0  0  0  0  0  0  0  0
   -1.8945   -2.2195    0.5041 H   0  0  0  0  0  0  0  0  0  0  0  0
    1.5231   -2.8763   -1.5321 H   0  0  0  0  0  0  0  0  0  0  0  0
    1.7680    1.3000   -0.1067 H   0  0  0  0  0  0  0  0  0  0  0  0
    6.2073    2.0189   -0.5830 H   0  0  0  0  0  0  0  0  0  0  0  0
    5.8480   -1.4796   -0.4428 H   0  0  0  0  0  0  0  0  0  0  0  0
    2.9144   -3.1385    0.2814 H   0  0  0  0  0  0  0  0  0  0  0  0
  2  1  2  0  0  0  0
  2  4  1  0  0  0  0
  3  2  1  0  0  0  0
  4  9  1  0  0  0  0
  5  4  2  0  0  0  0
  5  6  1  0  0  0  0
  6  7  2  0  0  0  0
  7  8  1  0  0  0  0
  7 10  1  0  0  0  0
  8 32  1  0  0  0  0
  9 33  1  0  0  0  0
  9  8  2  0  0  0  0
 10 34  1  0  0  0  0
 11 10  1  0  0  0  0
 11 12  2  0  0  0  0
 13 11  1  0  0  0  0
 14 35  1  0  0  0  0
 14 13  1  0  0  0  0
 15 14  2  0  0  0  0
 16 15  1  0  0  0  0
 16 17  1  0  0  0  0
 17 13  2  0  0  0  0
 18 17  1  0  0  0  0
 19 18  1  0  0  0  0
 19 37  1  0  0  0  0
 20 19  2  0  0  0  0
 21 20  1  0  0  0  0
 22 24  2  0  0  0  0
 22 20  1  0  0  0  0
 23 38  1  0  0  0  0
 23 22  1  0  0  0  0
 24 25  1  0  0  0  0
 25 26  1  0  0  0  0
 25 18  2  0  0  0  0
 26 40  1  0  0  0  0
 27  3  1  0  0  0  0
 28  3  1  0  0  0  0
 29  3  1  0  0  0  0
 30  5  1  0  0  0  0
 31  6  1  0  0  0  0
 36 16  1  0  0  0  0
 39 24  1  0  0  0  0
M  END
