omegapdb_1m5f_13.log
 OpenBabel09261812563D

 25 25  0  0  1  0  0  0  0  0999 V2000
    3.2921   -2.0487    0.1356 O   0  0  0  0  0  0  0  0  0  0  0  0
    2.0673   -1.6594   -0.2434 C   0  0  0  0  0  0  0  0  0  0  0  0
    1.2526   -2.4257   -0.6834 O   0  0  0  0  0  0  0  0  0  0  0  0
    1.8084   -0.1923   -0.0810 C   0  0  0  0  0  0  0  0  0  0  0  0
    2.7969    0.5690    0.3160 N   0  0  0  0  0  0  0  0  0  0  0  0
    2.3108    1.8386    0.3385 O   0  0  0  0  0  0  0  0  0  0  0  0
    1.0192    1.8303   -0.0532 C   0  0  0  0  0  0  0  0  0  0  0  0
    0.6236    0.5563   -0.3369 C   0  0  0  0  0  0  0  0  0  0  0  0
   -0.7276    0.0743   -0.7780 C   0  0  0  0  0  0  0  0  0  0  0  0
   -1.7433    0.0739    0.3700 C   0  0  2  0  0  0  0  0  0  0  0  0
   -1.3756   -0.9020    1.3825 N   0  0  0  0  0  0  0  0  0  0  0  0
   -3.1289   -0.2361   -0.1740 C   0  0  0  0  0  0  0  0  0  0  0  0
   -3.4795   -0.0945   -1.3197 O   0  0  0  0  0  0  0  0  0  0  0  0
   -3.9711   -0.6377    0.7974 O   0  0  0  0  0  0  0  0  0  0  0  0
    0.3327    3.1488   -0.1061 C   0  0  0  0  0  0  0  0  0  0  0  0
    3.7950   -1.2716    0.4375 H   0  0  0  0  0  0  0  0  0  0  0  0
   -1.1127    0.7051   -1.5854 H   0  0  0  0  0  0  0  0  0  0  0  0
   -0.6371   -0.9448   -1.1616 H   0  0  0  0  0  0  0  0  0  0  0  0
   -1.8238    1.1080    0.7644 H   0  0  0  0  0  0  0  0  0  0  0  0
   -2.0712   -0.9238    2.1209 H   0  0  0  0  0  0  0  0  0  0  0  0
   -0.4887   -0.6408    1.8028 H   0  0  0  0  0  0  0  0  0  0  0  0
   -4.8266   -0.7986    0.3662 H   0  0  0  0  0  0  0  0  0  0  0  0
   -0.6410    3.0415   -0.5907 H   0  0  0  0  0  0  0  0  0  0  0  0
    0.1794    3.5555    0.8989 H   0  0  0  0  0  0  0  0  0  0  0  0
    0.9290    3.8685   -0.6746 H   0  0  0  0  0  0  0  0  0  0  0  0
  1 16  1  0  0  0  0
  2  4  1  0  0  0  0
  2  1  1  0  0  0  0
  3  2  2  0  0  0  0
  4  5  2  0  0  0  0
  5  6  1  0  0  0  0
  7  6  1  0  0  0  0
  8  4  1  0  0  0  0
  8  7  2  0  0  0  0
  9  8  1  0  0  0  0
  9 10  1  0  0  0  0
 10 19  1  1  0  0  0
 10 11  1  0  0  0  0
 11 21  1  0  0  0  0
 11 20  1  0  0  0  0
 12 10  1  0  0  0  0
 12 14  1  0  0  0  0
 13 12  2  0  0  0  0
 15  7  1  0  0  0  0
 15 24  1  0  0  0  0
 17  9  1  0  0  0  0
 18  9  1  0  0  0  0
 22 14  1  0  0  0  0
 23 15  1  0  0  0  0
 25 15  1  0  0  0  0
M  END
