omegapdb_2byh_03.log
 OpenBabel09261812563D

 40 42  0  0  0  0  0  0  0  0999 V2000
    7.6027    0.2620    0.9393 O   0  0  0  0  0  0  0  0  0  0  0  0
    6.7406    0.9152    0.3823 C   0  0  0  0  0  0  0  0  0  0  0  0
    7.0489    2.2883   -0.1777 C   0  0  0  0  0  0  0  0  0  0  0  0
    5.3524    0.3781    0.2365 C   0  0  0  0  0  0  0  0  0  0  0  0
    5.0734   -0.8887    0.7578 C   0  0  0  0  0  0  0  0  0  0  0  0
    3.8068   -1.4301    0.6504 C   0  0  0  0  0  0  0  0  0  0  0  0
    2.7785   -0.7161    0.0179 C   0  0  0  0  0  0  0  0  0  0  0  0
    3.0438    0.5522   -0.5073 C   0  0  0  0  0  0  0  0  0  0  0  0
    4.3241    1.0806   -0.3920 C   0  0  0  0  0  0  0  0  0  0  0  0
    1.5235   -1.3428   -0.0587 N   0  0  0  0  0  0  0  0  0  0  0  0
    0.3362   -0.8380   -0.5425 C   0  0  0  0  0  0  0  0  0  0  0  0
    0.2230    0.3084   -0.9530 O   0  0  0  0  0  0  0  0  0  0  0  0
   -0.7557   -1.8405   -0.5326 C   0  0  0  0  0  0  0  0  0  0  0  0
   -0.5781   -3.2283   -0.7506 C   0  0  0  0  0  0  0  0  0  0  0  0
   -1.7140   -3.8948   -0.6738 N   0  0  0  0  0  0  0  0  0  0  0  0
   -2.6244   -2.9529   -0.4079 N   0  0  0  0  0  0  0  0  0  0  0  0
   -2.1311   -1.6956   -0.3131 C   0  0  0  0  0  0  0  0  0  0  0  0
   -3.0091   -0.5474   -0.0147 C   0  0  0  0  0  0  0  0  0  0  0  0
   -2.6545    0.7467   -0.4070 C   0  0  0  0  0  0  0  0  0  0  0  0
   -3.4664    1.8316   -0.1274 C   0  0  0  0  0  0  0  0  0  0  0  0
   -2.9992    3.4365   -0.6253 Cl  0  0  0  0  0  0  0  0  0  0  0  0
   -4.6778    1.6699    0.5502 C   0  0  0  0  0  0  0  0  0  0  0  0
   -5.5080    2.6872    0.8477 O   0  0  0  0  0  0  0  0  0  0  0  0
   -5.0542    0.3861    0.9336 C   0  0  0  0  0  0  0  0  0  0  0  0
   -4.2401   -0.7021    0.6539 C   0  0  0  0  0  0  0  0  0  0  0  0
   -4.6274   -1.9596    1.0229 O   0  0  0  0  0  0  0  0  0  0  0  0
    6.4177    3.0514    0.2911 H   0  0  0  0  0  0  0  0  0  0  0  0
    6.8614    2.3214   -1.2567 H   0  0  0  0  0  0  0  0  0  0  0  0
    8.0983    2.5155    0.0154 H   0  0  0  0  0  0  0  0  0  0  0  0
    5.8750   -1.4340    1.2473 H   0  0  0  0  0  0  0  0  0  0  0  0
    3.6033   -2.4179    1.0607 H   0  0  0  0  0  0  0  0  0  0  0  0
    2.2530    1.1101   -0.9892 H   0  0  0  0  0  0  0  0  0  0  0  0
    4.5098    2.0678   -0.8076 H   0  0  0  0  0  0  0  0  0  0  0  0
    1.4707   -2.2541    0.3726 H   0  0  0  0  0  0  0  0  0  0  0  0
    0.3375   -3.7532   -0.9976 H   0  0  0  0  0  0  0  0  0  0  0  0
   -3.5807   -3.2170   -0.2233 H   0  0  0  0  0  0  0  0  0  0  0  0
   -1.7154    0.8986   -0.9298 H   0  0  0  0  0  0  0  0  0  0  0  0
   -5.1221    3.5141    0.5192 H   0  0  0  0  0  0  0  0  0  0  0  0
   -6.0018    0.2603    1.4513 H   0  0  0  0  0  0  0  0  0  0  0  0
   -5.4659   -1.9069    1.4994 H   0  0  0  0  0  0  0  0  0  0  0  0
  2  1  2  0  0  0  0
  3 29  1  0  0  0  0
  3 27  1  0  0  0  0
  3  2  1  0  0  0  0
  4  2  1  0  0  0  0
  4  5  2  0  0  0  0
  5 30  1  0  0  0  0
  6  5  1  0  0  0  0
  6 31  1  0  0  0  0
  7  6  2  0  0  0  0
  8  9  2  0  0  0  0
  8  7  1  0  0  0  0
  9  4  1  0  0  0  0
 10  7  1  0  0  0  0
 10 34  1  0  0  0  0
 11 13  1  0  0  0  0
 11 10  1  0  0  0  0
 12 11  2  0  0  0  0
 13 17  2  0  0  0  0
 14 15  2  0  0  0  0
 14 13  1  0  0  0  0
 15 16  1  0  0  0  0
 16 17  1  0  0  0  0
 16 36  1  0  0  0  0
 17 18  1  0  0  0  0
 18 25  2  0  0  0  0
 19 20  2  0  0  0  0
 19 18  1  0  0  0  0
 20 22  1  0  0  0  0
 21 20  1  0  0  0  0
 22 23  1  0  0  0  0
 22 24  2  0  0  0  0
 24 39  1  0  0  0  0
 25 24  1  0  0  0  0
 25 26  1  0  0  0  0
 26 40  1  0  0  0  0
 28  3  1  0  0  0  0
 32  8  1  0  0  0  0
 33  9  1  0  0  0  0
 35 14  1  0  0  0  0
 37 19  1  0  0  0  0
 38 23  1  0  0  0  0
M  END
