omegapdb_1qxw_08.log
 OpenBabel09261812563D

 36 36  0  0  1  0  0  0  0  0999 V2000
    4.1497    1.1350    0.4863 C   0  0  0  0  0  0  0  0  0  0  0  0
    3.9761    1.6678   -0.9147 C   0  0  0  0  0  0  0  0  0  0  0  0
    2.7770    1.4608   -0.0503 C   0  0  0  0  0  0  0  0  0  0  0  0
    1.8268    0.4360   -0.3826 N   0  0  0  0  0  0  0  0  0  0  0  0
    1.2810   -0.2422    0.7787 C   0  0  0  0  0  0  0  0  0  0  0  0
    0.3504   -1.3735    0.3550 C   0  0  0  0  0  0  0  0  0  0  0  0
   -0.8426   -0.9400   -0.5186 C   0  0  1  0  0  0  0  0  0  0  0  0
   -1.4291   -2.1879   -1.0215 N   0  0  0  0  0  0  0  0  0  0  0  0
   -1.8153   -0.0056    0.2058 C   0  0  0  0  0  0  0  0  0  0  0  0
   -2.9962    0.4257   -0.6642 C   0  0  0  0  0  0  0  0  0  0  0  0
   -3.9849    1.3554    0.0456 C   0  0  0  0  0  0  0  0  0  0  0  0
   -3.3905    2.7050    0.4456 C   0  0  0  0  0  0  0  0  0  0  0  0
    1.1336   -2.2871   -0.3625 O   0  0  0  0  0  0  0  0  0  0  0  0
   -0.2064   -1.9980    1.5007 O   0  0  0  0  0  0  0  0  0  0  0  0
    4.5915    1.7841    1.2375 H   0  0  0  0  0  0  0  0  0  0  0  0
    4.4073    0.0834    0.5907 H   0  0  0  0  0  0  0  0  0  0  0  0
    4.2919    2.6843   -1.1304 H   0  0  0  0  0  0  0  0  0  0  0  0
    4.1277    0.9735   -1.7383 H   0  0  0  0  0  0  0  0  0  0  0  0
    2.3048    2.3577    0.3491 H   0  0  0  0  0  0  0  0  0  0  0  0
    2.2532   -0.2660   -0.9823 H   0  0  0  0  0  0  0  0  0  0  0  0
    2.0613   -0.6831    1.4272 H   0  0  0  0  0  0  0  0  0  0  0  0
    0.7246    0.4737    1.3937 H   0  0  0  0  0  0  0  0  0  0  0  0
   -0.4142   -0.4114   -1.3779 H   0  0  0  0  0  0  0  0  0  0  0  0
   -1.9610   -2.6322   -0.2770 H   0  0  0  0  0  0  0  0  0  0  0  0
   -2.0614   -2.0103   -1.7942 H   0  0  0  0  0  0  0  0  0  0  0  0
   -1.2614    0.8840    0.5299 H   0  0  0  0  0  0  0  0  0  0  0  0
   -2.1800   -0.5020    1.1158 H   0  0  0  0  0  0  0  0  0  0  0  0
   -3.5408   -0.4655   -1.0053 H   0  0  0  0  0  0  0  0  0  0  0  0
   -2.6172    0.9242   -1.5694 H   0  0  0  0  0  0  0  0  0  0  0  0
   -4.8447    1.5246   -0.6153 H   0  0  0  0  0  0  0  0  0  0  0  0
   -4.3785    0.8492    0.9378 H   0  0  0  0  0  0  0  0  0  0  0  0
   -4.1571    3.3634    0.8678 H   0  0  0  0  0  0  0  0  0  0  0  0
   -2.9543    3.2134   -0.4230 H   0  0  0  0  0  0  0  0  0  0  0  0
   -2.6015    2.5957    1.1975 H   0  0  0  0  0  0  0  0  0  0  0  0
    0.4778   -2.7828   -0.8947 H   0  0  0  0  0  0  0  0  0  0  0  0
    0.5018   -2.5441    1.8685 H   0  0  0  0  0  0  0  0  0  0  0  0
  1 16  1  0  0  0  0
  1 15  1  0  0  0  0
  2  3  1  0  0  0  0
  2  1  1  0  0  0  0
  3 19  1  0  0  0  0
  3  1  1  0  0  0  0
  4  3  1  0  0  0  0
  4  5  1  0  0  0  0
  5 22  1  0  0  0  0
  5 21  1  0  0  0  0
  6  5  1  0  0  0  0
  6 14  1  0  0  0  0
  7 23  1  6  0  0  0
  7  9  1  0  0  0  0
  7  6  1  0  0  0  0
  8  7  1  0  0  0  0
  8 24  1  0  0  0  0
  9 26  1  0  0  0  0
  9 27  1  0  0  0  0
 10 11  1  0  0  0  0
 10  9  1  0  0  0  0
 11 12  1  0  0  0  0
 11 31  1  0  0  0  0
 12 32  1  0  0  0  0
 12 34  1  0  0  0  0
 13  6  1  0  0  0  0
 14 36  1  0  0  0  0
 17  2  1  0  0  0  0
 18  2  1  0  0  0  0
 20  4  1  0  0  0  0
 25  8  1  0  0  0  0
 28 10  1  0  0  0  0
 29 10  1  0  0  0  0
 30 11  1  0  0  0  0
 33 12  1  0  0  0  0
 35 13  1  0  0  0  0
M  END
