omegapdb_1m5f_21.log
 OpenBabel09261812563D

 25 25  0  0  1  0  0  0  0  0999 V2000
    0.6587    1.8502    1.1065 O   0  0  0  0  0  0  0  0  0  0  0  0
   -0.4514    2.0835    0.3729 C   0  0  0  0  0  0  0  0  0  0  0  0
   -0.7624    3.1716   -0.0289 O   0  0  0  0  0  0  0  0  0  0  0  0
   -1.2244    0.8275    0.1596 C   0  0  0  0  0  0  0  0  0  0  0  0
   -2.4432    0.9314   -0.3028 N   0  0  0  0  0  0  0  0  0  0  0  0
   -2.9080   -0.3471   -0.4039 O   0  0  0  0  0  0  0  0  0  0  0  0
   -1.9610   -1.2147   -0.0015 C   0  0  0  0  0  0  0  0  0  0  0  0
   -0.8476   -0.5352    0.3829 C   0  0  0  0  0  0  0  0  0  0  0  0
    0.4364   -1.1129    0.8968 C   0  0  0  0  0  0  0  0  0  0  0  0
    1.5236   -1.3202   -0.1772 C   0  0  2  0  0  0  0  0  0  0  0  0
    2.7008   -1.9265    0.4481 N   0  0  0  0  0  0  0  0  0  0  0  0
    1.9302    0.0297   -0.7885 C   0  0  0  0  0  0  0  0  0  0  0  0
    1.2775    0.5829   -1.6370 O   0  0  0  0  0  0  0  0  0  0  0  0
    3.0489    0.5447   -0.2732 O   0  0  0  0  0  0  0  0  0  0  0  0
   -2.3187   -2.6575   -0.0681 C   0  0  0  0  0  0  0  0  0  0  0  0
    1.1558    2.6849    1.1211 H   0  0  0  0  0  0  0  0  0  0  0  0
    0.8446   -0.4803    1.6906 H   0  0  0  0  0  0  0  0  0  0  0  0
    0.2261   -2.0953    1.3407 H   0  0  0  0  0  0  0  0  0  0  0  0
    1.1004   -1.9183   -0.9947 H   0  0  0  0  0  0  0  0  0  0  0  0
    3.2450   -2.4516   -0.2298 H   0  0  0  0  0  0  0  0  0  0  0  0
    2.4403   -2.5688    1.1898 H   0  0  0  0  0  0  0  0  0  0  0  0
    3.3827   -0.1341    0.3554 H   0  0  0  0  0  0  0  0  0  0  0  0
   -3.2646   -2.8436    0.4492 H   0  0  0  0  0  0  0  0  0  0  0  0
   -2.4335   -2.9809   -1.1076 H   0  0  0  0  0  0  0  0  0  0  0  0
   -1.5401   -3.2665    0.3987 H   0  0  0  0  0  0  0  0  0  0  0  0
  1 16  1  0  0  0  0
  2  1  1  0  0  0  0
  3  2  2  0  0  0  0
  4  2  1  0  0  0  0
  4  8  1  0  0  0  0
  5  4  2  0  0  0  0
  6  5  1  0  0  0  0
  6  7  1  0  0  0  0
  7  8  2  0  0  0  0
  8  9  1  0  0  0  0
  9 18  1  0  0  0  0
  9 17  1  0  0  0  0
 10 19  1  6  0  0  0
 10 11  1  0  0  0  0
 10  9  1  0  0  0  0
 11 21  1  0  0  0  0
 12 14  1  0  0  0  0
 12 10  1  0  0  0  0
 13 12  2  0  0  0  0
 14 22  1  0  0  0  0
 15  7  1  0  0  0  0
 15 25  1  0  0  0  0
 15 23  1  0  0  0  0
 20 11  1  0  0  0  0
 24 15  1  0  0  0  0
M  END
