omegapdb_1v2k_09.log
 OpenBabel09261812563D

 61 65  0  0  0  0  0  0  0  0999 V2000
    9.8336    1.1534    0.5321 N   0  0  0  0  0  0  0  0  0  0  0  0
    9.3282    0.1172   -0.1450 C   0  0  0  0  0  0  0  0  0  0  0  0
    7.9796   -0.0941   -0.3749 C   0  0  0  0  0  0  0  0  0  0  0  0
    7.0386    0.8229    0.1255 C   0  0  0  0  0  0  0  0  0  0  0  0
    7.5622    1.9103    0.8391 C   0  0  0  0  0  0  0  0  0  0  0  0
    8.9387    2.0206    1.0011 C   0  0  0  0  0  0  0  0  0  0  0  0
    5.6723    0.6605   -0.1181 N   0  0  0  0  0  0  0  0  0  0  0  0
    5.1117   -0.6756    0.0608 C   0  0  0  0  0  0  0  0  0  0  0  0
    3.7810   -0.8283   -0.6686 C   0  0  0  0  0  0  0  0  0  0  0  0
    2.7845    0.2436   -0.2047 C   0  0  0  0  0  0  0  0  0  0  0  0
    3.4210    1.6191   -0.3901 C   0  0  0  0  0  0  0  0  0  0  0  0
    4.7688    1.7158    0.3195 C   0  0  0  0  0  0  0  0  0  0  0  0
    1.4735    0.1564   -0.9838 C   0  0  0  0  0  0  0  0  0  0  0  0
    1.1919    0.9816   -1.8419 O   0  0  0  0  0  0  0  0  0  0  0  0
    0.6272   -0.8910   -0.7298 N   0  0  0  0  0  0  0  0  0  0  0  0
    0.7911   -1.9055    0.3025 C   0  0  0  0  0  0  0  0  0  0  0  0
   -0.5550   -2.2338    0.9366 C   0  0  0  0  0  0  0  0  0  0  0  0
   -1.4497   -2.7758   -0.0909 N   0  0  0  0  0  0  0  0  0  0  0  0
   -1.1784   -2.3637   -1.4735 C   0  0  0  0  0  0  0  0  0  0  0  0
   -0.5921   -0.9611   -1.5366 C   0  0  0  0  0  0  0  0  0  0  0  0
   -3.0138   -3.0795    0.3672 S   0  0  0  0  0  0  0  0  0  0  0  0
   -2.9324   -3.6857    1.6842 O   0  0  0  0  0  0  0  0  0  0  0  0
   -3.6572   -3.7308   -0.7596 O   0  0  0  0  0  0  0  0  0  0  0  0
   -3.7878   -1.4878    0.5739 C   0  0  0  0  0  0  0  0  0  0  0  0
   -4.4403   -0.9139   -0.4858 C   0  0  0  0  0  0  0  0  0  0  0  0
   -5.0123    0.3769   -0.3498 C   0  0  0  0  0  0  0  0  0  0  0  0
   -4.8997    1.0555    0.8911 C   0  0  0  0  0  0  0  0  0  0  0  0
   -4.2316    0.4181    1.9721 C   0  0  0  0  0  0  0  0  0  0  0  0
   -3.6881   -0.8284    1.8249 C   0  0  0  0  0  0  0  0  0  0  0  0
   -5.4693    2.3488    1.0292 C   0  0  0  0  0  0  0  0  0  0  0  0
   -6.1161    2.9214   -0.0301 C   0  0  0  0  0  0  0  0  0  0  0  0
   -6.2392    2.2548   -1.2738 C   0  0  0  0  0  0  0  0  0  0  0  0
   -5.6978    1.0087   -1.4230 C   0  0  0  0  0  0  0  0  0  0  0  0
   -6.8141    4.5040    0.1319 Cl  0  0  0  0  0  0  0  0  0  0  0  0
   10.0545   -0.5923   -0.5400 H   0  0  0  0  0  0  0  0  0  0  0  0
    7.6731   -0.9485   -0.9695 H   0  0  0  0  0  0  0  0  0  0  0  0
    6.9214    2.6615    1.2864 H   0  0  0  0  0  0  0  0  0  0  0  0
    9.3410    2.8667    1.5576 H   0  0  0  0  0  0  0  0  0  0  0  0
    4.9627   -0.8812    1.1377 H   0  0  0  0  0  0  0  0  0  0  0  0
    5.8168   -1.4205   -0.3099 H   0  0  0  0  0  0  0  0  0  0  0  0
    3.3950   -1.8398   -0.4941 H   0  0  0  0  0  0  0  0  0  0  0  0
    3.9434   -0.7181   -1.7479 H   0  0  0  0  0  0  0  0  0  0  0  0
    2.5899    0.0951    0.8680 H   0  0  0  0  0  0  0  0  0  0  0  0
    2.7541    2.4016   -0.0130 H   0  0  0  0  0  0  0  0  0  0  0  0
    3.5535    1.8053   -1.4601 H   0  0  0  0  0  0  0  0  0  0  0  0
    5.2188    2.6815    0.0753 H   0  0  0  0  0  0  0  0  0  0  0  0
    4.6254    1.6853    1.4167 H   0  0  0  0  0  0  0  0  0  0  0  0
    1.2357   -2.8243   -0.1059 H   0  0  0  0  0  0  0  0  0  0  0  0
    1.4575   -1.5396    1.0858 H   0  0  0  0  0  0  0  0  0  0  0  0
   -0.4310   -2.9774    1.7275 H   0  0  0  0  0  0  0  0  0  0  0  0
   -0.9644   -1.3146    1.3842 H   0  0  0  0  0  0  0  0  0  0  0  0
   -2.1046   -2.4167   -2.0496 H   0  0  0  0  0  0  0  0  0  0  0  0
   -0.4856   -3.0838   -1.9253 H   0  0  0  0  0  0  0  0  0  0  0  0
   -1.3249   -0.2220   -1.1839 H   0  0  0  0  0  0  0  0  0  0  0  0
   -0.3429   -0.6979   -2.5677 H   0  0  0  0  0  0  0  0  0  0  0  0
   -4.5434   -1.4561   -1.4226 H   0  0  0  0  0  0  0  0  0  0  0  0
   -4.1697    0.9328    2.9279 H   0  0  0  0  0  0  0  0  0  0  0  0
   -3.2104   -1.3366    2.6571 H   0  0  0  0  0  0  0  0  0  0  0  0
   -5.3891    2.8756    1.9758 H   0  0  0  0  0  0  0  0  0  0  0  0
   -6.7614    2.7433   -2.0903 H   0  0  0  0  0  0  0  0  0  0  0  0
   -5.7867    0.4858   -2.3722 H   0  0  0  0  0  0  0  0  0  0  0  0
  1  6  2  0  0  0  0
  2  1  1  0  0  0  0
  3  2  2  0  0  0  0
  3  4  1  0  0  0  0
  4  5  2  0  0  0  0
  5  6  1  0  0  0  0
  5 37  1  0  0  0  0
  6 38  1  0  0  0  0
  7  8  1  0  0  0  0
  7  4  1  0  0  0  0
  7 12  1  0  0  0  0
  8 39  1  0  0  0  0
  9 41  1  0  0  0  0
  9 10  1  0  0  0  0
  9  8  1  0  0  0  0
 10 43  1  0  0  0  0
 11 10  1  0  0  0  0
 11 44  1  0  0  0  0
 11 12  1  0  0  0  0
 12 47  1  0  0  0  0
 13 15  1  0  0  0  0
 13 10  1  0  0  0  0
 14 13  2  0  0  0  0
 15 16  1  0  0  0  0
 16 17  1  0  0  0  0
 16 49  1  0  0  0  0
 17 51  1  0  0  0  0
 17 50  1  0  0  0  0
 18 21  1  0  0  0  0
 18 17  1  0  0  0  0
 19 18  1  0  0  0  0
 20 19  1  0  0  0  0
 20 54  1  0  0  0  0
 20 15  1  0  0  0  0
 21 24  1  0  0  0  0
 21 22  2  0  0  0  0
 23 21  2  0  0  0  0
 24 29  2  0  0  0  0
 25 26  2  0  0  0  0
 25 24  1  0  0  0  0
 26 27  1  0  0  0  0
 27 30  1  0  0  0  0
 27 28  2  0  0  0  0
 28 57  1  0  0  0  0
 29 28  1  0  0  0  0
 29 58  1  0  0  0  0
 30 59  1  0  0  0  0
 31 34  1  0  0  0  0
 31 30  2  0  0  0  0
 32 31  1  0  0  0  0
 33 32  2  0  0  0  0
 33 26  1  0  0  0  0
 35  2  1  0  0  0  0
 36  3  1  0  0  0  0
 40  8  1  0  0  0  0
 42  9  1  0  0  0  0
 45 11  1  0  0  0  0
 46 12  1  0  0  0  0
 48 16  1  0  0  0  0
 52 19  1  0  0  0  0
 53 19  1  0  0  0  0
 55 20  1  0  0  0  0
 56 25  1  0  0  0  0
 60 32  1  0  0  0  0
 61 33  1  0  0  0  0
M  END
