omegapdb_1z1r_15.log
 OpenBabel09261812563D

 66 68  0  0  1  0  0  0  0  0999 V2000
    0.6322   -0.8663   -1.2523 C   0  0  2  0  0  0  0  0  0  0  0  0
    0.8285    0.5615   -1.8070 C   0  0  0  0  0  0  0  0  0  0  0  0
   -0.3651    1.4361   -1.5258 C   0  0  0  0  0  0  0  0  0  0  0  0
   -0.5409    2.0260   -0.2724 C   0  0  0  0  0  0  0  0  0  0  0  0
   -1.7268    2.6714    0.0568 C   0  0  0  0  0  0  0  0  0  0  0  0
   -2.7619    2.7361   -0.8746 C   0  0  0  0  0  0  0  0  0  0  0  0
   -2.5601    2.2472   -2.1652 C   0  0  0  0  0  0  0  0  0  0  0  0
   -1.3749    1.5928   -2.4794 C   0  0  0  0  0  0  0  0  0  0  0  0
   -3.9836    3.2703   -0.5700 O   0  0  0  0  0  0  0  0  0  0  0  0
   -4.6577    2.7037    0.5587 C   0  0  0  0  0  0  0  0  0  0  0  0
   -5.5456    1.5267    0.1714 C   0  0  0  0  0  0  0  0  0  0  0  0
   -4.8074    0.3276   -0.4317 C   0  0  0  0  0  0  0  0  0  0  0  0
   -3.8583   -0.3360    0.5508 C   0  0  0  0  0  0  0  0  0  0  0  0
   -4.2187   -0.5880    1.6974 O   0  0  0  0  0  0  0  0  0  0  0  0
   -2.6350   -0.7020    0.0707 N   0  0  0  0  0  0  0  0  0  0  0  0
   -1.7074   -1.4716    0.8884 C   0  0  2  0  0  0  0  0  0  0  0  0
   -0.3395   -0.8031    1.1367 C   0  0  0  0  0  0  0  0  0  0  0  0
   -0.1025   -0.3256    2.2342 O   0  0  0  0  0  0  0  0  0  0  0  0
    0.6747   -0.8910    0.2061 N   0  0  0  0  0  0  0  0  0  0  0  0
   -1.5594   -2.9277    0.4292 C   0  0  0  0  0  0  0  0  0  0  0  0
   -2.8423   -3.7545    0.3440 C   0  0  0  0  0  0  0  0  0  0  0  0
   -2.9307   -4.6621   -0.4648 O   0  0  0  0  0  0  0  0  0  0  0  0
   -3.8139   -3.4933    1.2618 N   0  0  0  0  0  0  0  0  0  0  0  0
    1.6603   -1.8702   -1.8225 C   0  0  2  0  0  0  0  0  0  0  0  0
    1.4813   -3.1357   -1.2248 O   0  0  0  0  0  0  0  0  0  0  0  0
    3.1297   -1.4450   -1.7222 C   0  0  0  0  0  0  0  0  0  0  0  0
    3.5698   -1.4536   -0.3242 N   0  0  0  0  0  0  0  0  0  0  0  0
    4.8371   -0.4646    0.1392 S   0  0  0  0  0  0  0  0  0  0  0  0
    5.4379   -1.1413    1.2754 O   0  0  0  0  0  0  0  0  0  0  0  0
    5.6205   -0.0703   -1.0212 O   0  0  0  0  0  0  0  0  0  0  0  0
    3.9751    0.9827    0.7106 C   0  0  0  0  0  0  0  0  0  0  0  0
    4.1032    2.1754    0.0078 C   0  0  0  0  0  0  0  0  0  0  0  0
    3.3976    3.2935    0.4474 C   0  0  0  0  0  0  0  0  0  0  0  0
    2.5788    3.2061    1.5697 C   0  0  0  0  0  0  0  0  0  0  0  0
    2.4616    2.0038    2.2679 C   0  0  0  0  0  0  0  0  0  0  0  0
    3.1700    0.8861    1.8446 C   0  0  0  0  0  0  0  0  0  0  0  0
   -0.3522   -1.2323   -1.5664 H   0  0  0  0  0  0  0  0  0  0  0  0
    1.0027    0.4953   -2.8891 H   0  0  0  0  0  0  0  0  0  0  0  0
    1.7320    0.9974   -1.3612 H   0  0  0  0  0  0  0  0  0  0  0  0
    0.2475    1.9549    0.4741 H   0  0  0  0  0  0  0  0  0  0  0  0
   -1.8572    3.1017    1.0456 H   0  0  0  0  0  0  0  0  0  0  0  0
   -3.3593    2.3507   -2.8944 H   0  0  0  0  0  0  0  0  0  0  0  0
   -1.2422    1.1779   -3.4775 H   0  0  0  0  0  0  0  0  0  0  0  0
   -5.2702    3.5093    0.9732 H   0  0  0  0  0  0  0  0  0  0  0  0
   -3.9350    2.3998    1.3258 H   0  0  0  0  0  0  0  0  0  0  0  0
   -6.0715    1.1936    1.0735 H   0  0  0  0  0  0  0  0  0  0  0  0
   -6.2992    1.8730   -0.5446 H   0  0  0  0  0  0  0  0  0  0  0  0
   -4.2999    0.5988   -1.3601 H   0  0  0  0  0  0  0  0  0  0  0  0
   -5.5454   -0.4431   -0.6875 H   0  0  0  0  0  0  0  0  0  0  0  0
   -2.3759   -0.4090   -0.8616 H   0  0  0  0  0  0  0  0  0  0  0  0
   -2.1439   -1.4485    1.8887 H   0  0  0  0  0  0  0  0  0  0  0  0
    1.5295   -0.4961    0.5857 H   0  0  0  0  0  0  0  0  0  0  0  0
   -1.0825   -3.0171   -0.5504 H   0  0  0  0  0  0  0  0  0  0  0  0
   -0.9030   -3.4452    1.1426 H   0  0  0  0  0  0  0  0  0  0  0  0
   -4.6629   -4.0282    1.1485 H   0  0  0  0  0  0  0  0  0  0  0  0
   -3.8957   -2.6012    1.7375 H   0  0  0  0  0  0  0  0  0  0  0  0
    1.4353   -1.9932   -2.8894 H   0  0  0  0  0  0  0  0  0  0  0  0
    1.2833   -2.9613   -0.2906 H   0  0  0  0  0  0  0  0  0  0  0  0
    3.2814   -0.4421   -2.1319 H   0  0  0  0  0  0  0  0  0  0  0  0
    3.7355   -2.1310   -2.3253 H   0  0  0  0  0  0  0  0  0  0  0  0
    3.7431   -2.3869    0.0388 H   0  0  0  0  0  0  0  0  0  0  0  0
    4.7516    2.2158   -0.8626 H   0  0  0  0  0  0  0  0  0  0  0  0
    3.4891    4.2338   -0.0890 H   0  0  0  0  0  0  0  0  0  0  0  0
    2.0257    4.0802    1.9035 H   0  0  0  0  0  0  0  0  0  0  0  0
    1.8105    1.9268    3.1334 H   0  0  0  0  0  0  0  0  0  0  0  0
    3.0925   -0.0535    2.3861 H   0  0  0  0  0  0  0  0  0  0  0  0
  1 37  1  6  0  0  0
  1 19  1  0  0  0  0
  2  3  1  0  0  0  0
  2 39  1  0  0  0  0
  2  1  1  0  0  0  0
  3  4  2  0  0  0  0
  4  5  1  0  0  0  0
  4 40  1  0  0  0  0
  5 41  1  0  0  0  0
  6  9  1  0  0  0  0
  6  5  2  0  0  0  0
  7  6  1  0  0  0  0
  8  7  2  0  0  0  0
  8  3  1  0  0  0  0
  9 10  1  0  0  0  0
 10 44  1  0  0  0  0
 10 45  1  0  0  0  0
 11 10  1  0  0  0  0
 11 46  1  0  0  0  0
 12 11  1  0  0  0  0
 12 13  1  0  0  0  0
 13 14  2  0  0  0  0
 15 13  1  0  0  0  0
 15 16  1  0  0  0  0
 16 17  1  0  0  0  0
 16 51  1  1  0  0  0
 17 18  2  0  0  0  0
 19 52  1  0  0  0  0
 19 17  1  0  0  0  0
 20 16  1  0  0  0  0
 20 54  1  0  0  0  0
 21 20  1  0  0  0  0
 21 23  1  0  0  0  0
 22 21  2  0  0  0  0
 23 56  1  0  0  0  0
 24 57  1  6  0  0  0
 24 26  1  0  0  0  0
 24  1  1  0  0  0  0
 24 25  1  0  0  0  0
 25 58  1  0  0  0  0
 26 27  1  0  0  0  0
 27 61  1  0  0  0  0
 27 28  1  0  0  0  0
 28 31  1  0  0  0  0
 28 29  2  0  0  0  0
 30 28  2  0  0  0  0
 31 36  2  0  0  0  0
 32 33  2  0  0  0  0
 32 31  1  0  0  0  0
 33 34  1  0  0  0  0
 34 64  1  0  0  0  0
 34 35  2  0  0  0  0
 35 65  1  0  0  0  0
 36 35  1  0  0  0  0
 36 66  1  0  0  0  0
 38  2  1  0  0  0  0
 42  7  1  0  0  0  0
 43  8  1  0  0  0  0
 47 11  1  0  0  0  0
 48 12  1  0  0  0  0
 49 12  1  0  0  0  0
 50 15  1  0  0  0  0
 53 20  1  0  0  0  0
 55 23  1  0  0  0  0
 59 26  1  0  0  0  0
 60 26  1  0  0  0  0
 62 32  1  0  0  0  0
 63 33  1  0  0  0  0
M  END
