omegapdb_1qxw_06.log
 OpenBabel09261812563D

 36 36  0  0  1  0  0  0  0  0999 V2000
    3.4692   -2.1921   -0.1424 C   0  0  0  0  0  0  0  0  0  0  0  0
    4.6568   -1.3207    0.1601 C   0  0  0  0  0  0  0  0  0  0  0  0
    3.5134   -0.7788   -0.6417 C   0  0  0  0  0  0  0  0  0  0  0  0
    2.6482    0.1729   -0.0009 N   0  0  0  0  0  0  0  0  0  0  0  0
    1.3078    0.2368   -0.5766 C   0  0  0  0  0  0  0  0  0  0  0  0
    0.4526    1.0936    0.3563 C   0  0  0  0  0  0  0  0  0  0  0  0
   -1.0411    1.1470    0.0057 C   0  0  1  0  0  0  0  0  0  0  0  0
   -1.1679    1.7155   -1.3332 N   0  0  0  0  0  0  0  0  0  0  0  0
   -1.7251   -0.2169    0.0838 C   0  0  0  0  0  0  0  0  0  0  0  0
   -3.2467   -0.1399   -0.0420 C   0  0  0  0  0  0  0  0  0  0  0  0
   -3.9256   -1.4969    0.1390 C   0  0  0  0  0  0  0  0  0  0  0  0
   -5.4445   -1.4206    0.0081 C   0  0  0  0  0  0  0  0  0  0  0  0
    1.0034    2.4105    0.2556 O   0  0  0  0  0  0  0  0  0  0  0  0
    0.5735    0.6380    1.6700 O   0  0  0  0  0  0  0  0  0  0  0  0
    2.7808   -2.3983    0.6725 H   0  0  0  0  0  0  0  0  0  0  0  0
    3.5851   -2.9977   -0.8613 H   0  0  0  0  0  0  0  0  0  0  0  0
    5.5942   -1.5234   -0.3495 H   0  0  0  0  0  0  0  0  0  0  0  0
    4.7574   -0.9495    1.1757 H   0  0  0  0  0  0  0  0  0  0  0  0
    3.6808   -0.6472   -1.7147 H   0  0  0  0  0  0  0  0  0  0  0  0
    3.0565    1.1033   -0.0398 H   0  0  0  0  0  0  0  0  0  0  0  0
    0.9029   -0.7798   -0.6069 H   0  0  0  0  0  0  0  0  0  0  0  0
    1.2730    0.6491   -1.5940 H   0  0  0  0  0  0  0  0  0  0  0  0
   -1.4898    1.7881    0.7910 H   0  0  0  0  0  0  0  0  0  0  0  0
   -0.6597    2.5958   -1.3543 H   0  0  0  0  0  0  0  0  0  0  0  0
   -2.1406    1.9284   -1.5305 H   0  0  0  0  0  0  0  0  0  0  0  0
   -1.4602   -0.6791    1.0421 H   0  0  0  0  0  0  0  0  0  0  0  0
   -1.3332   -0.8593   -0.7159 H   0  0  0  0  0  0  0  0  0  0  0  0
   -3.5237    0.2621   -1.0276 H   0  0  0  0  0  0  0  0  0  0  0  0
   -3.6419    0.5646    0.7057 H   0  0  0  0  0  0  0  0  0  0  0  0
   -3.6586   -1.9041    1.1237 H   0  0  0  0  0  0  0  0  0  0  0  0
   -3.5257   -2.2019   -0.6027 H   0  0  0  0  0  0  0  0  0  0  0  0
   -5.7355   -1.0446   -0.9801 H   0  0  0  0  0  0  0  0  0  0  0  0
   -5.8697   -0.7430    0.7581 H   0  0  0  0  0  0  0  0  0  0  0  0
   -5.9104   -2.4026    0.1425 H   0  0  0  0  0  0  0  0  0  0  0  0
    0.7476    2.8527    1.0774 H   0  0  0  0  0  0  0  0  0  0  0  0
    1.4930    0.3121    1.7217 H   0  0  0  0  0  0  0  0  0  0  0  0
  1  2  1  0  0  0  0
  1 15  1  0  0  0  0
  2 18  1  0  0  0  0
  3  1  1  0  0  0  0
  3  4  1  0  0  0  0
  3  2  1  0  0  0  0
  5  4  1  0  0  0  0
  5  6  1  0  0  0  0
  6 14  1  0  0  0  0
  7  9  1  0  0  0  0
  7  6  1  0  0  0  0
  7 23  1  1  0  0  0
  8  7  1  0  0  0  0
  9 26  1  0  0  0  0
 10  9  1  0  0  0  0
 10 11  1  0  0  0  0
 10 29  1  0  0  0  0
 11 30  1  0  0  0  0
 12 11  1  0  0  0  0
 12 34  1  0  0  0  0
 12 33  1  0  0  0  0
 13  6  1  0  0  0  0
 13 35  1  0  0  0  0
 14 36  1  0  0  0  0
 16  1  1  0  0  0  0
 17  2  1  0  0  0  0
 19  3  1  0  0  0  0
 20  4  1  0  0  0  0
 21  5  1  0  0  0  0
 22  5  1  0  0  0  0
 24  8  1  0  0  0  0
 25  8  1  0  0  0  0
 27  9  1  0  0  0  0
 28 10  1  0  0  0  0
 31 11  1  0  0  0  0
 32 12  1  0  0  0  0
M  END
