omegapdb_1z1r_31.log
 OpenBabel09261812563D

 66 68  0  0  1  0  0  0  0  0999 V2000
   -0.1459   -2.1589   -0.0544 C   0  0  2  0  0  0  0  0  0  0  0  0
   -1.1466   -2.9989   -0.8738 C   0  0  0  0  0  0  0  0  0  0  0  0
   -2.5573   -2.5953   -0.5308 C   0  0  0  0  0  0  0  0  0  0  0  0
   -3.1027   -2.8975    0.7212 C   0  0  0  0  0  0  0  0  0  0  0  0
   -4.3007   -2.3379    1.1362 C   0  0  0  0  0  0  0  0  0  0  0  0
   -4.9898   -1.4652    0.2940 C   0  0  0  0  0  0  0  0  0  0  0  0
   -4.5049   -1.2159   -0.9870 C   0  0  0  0  0  0  0  0  0  0  0  0
   -3.2900   -1.7720   -1.3815 C   0  0  0  0  0  0  0  0  0  0  0  0
   -6.1397   -0.9176    0.7925 O   0  0  0  0  0  0  0  0  0  0  0  0
   -6.4351    0.4286    0.4552 C   0  0  0  0  0  0  0  0  0  0  0  0
   -5.4002    1.4506    0.9578 C   0  0  0  0  0  0  0  0  0  0  0  0
   -4.3915    1.9778   -0.0737 C   0  0  0  0  0  0  0  0  0  0  0  0
   -2.9722    1.4367    0.0565 C   0  0  0  0  0  0  0  0  0  0  0  0
   -2.5249    0.9913    1.1131 O   0  0  0  0  0  0  0  0  0  0  0  0
   -2.2099    1.5930   -1.0544 N   0  0  0  0  0  0  0  0  0  0  0  0
   -0.7513    1.4761   -1.1240 C   0  0  2  0  0  0  0  0  0  0  0  0
   -0.2611    0.0207   -1.2286 C   0  0  0  0  0  0  0  0  0  0  0  0
    0.3163   -0.3686   -2.2359 O   0  0  0  0  0  0  0  0  0  0  0  0
   -0.4420   -0.7297   -0.1167 N   0  0  0  0  0  0  0  0  0  0  0  0
   -0.0318    2.2258    0.0094 C   0  0  0  0  0  0  0  0  0  0  0  0
   -0.5509    3.6522    0.1016 C   0  0  0  0  0  0  0  0  0  0  0  0
   -0.3283    4.4799   -0.7649 O   0  0  0  0  0  0  0  0  0  0  0  0
   -1.2914    3.9197    1.2139 N   0  0  0  0  0  0  0  0  0  0  0  0
    1.3034   -2.4950   -0.4275 C   0  0  2  0  0  0  0  0  0  0  0  0
    1.5317   -3.8001    0.0655 O   0  0  0  0  0  0  0  0  0  0  0  0
    2.3010   -1.5130    0.1779 C   0  0  0  0  0  0  0  0  0  0  0  0
    3.6528   -1.9493   -0.1877 N   0  0  0  0  0  0  0  0  0  0  0  0
    4.9321   -1.2398    0.6223 S   0  0  0  0  0  0  0  0  0  0  0  0
    4.7046   -1.4613    2.0380 O   0  0  0  0  0  0  0  0  0  0  0  0
    6.1261   -1.7006   -0.0619 O   0  0  0  0  0  0  0  0  0  0  0  0
    4.7593    0.5063    0.3151 C   0  0  0  0  0  0  0  0  0  0  0  0
    3.9862    1.2788    1.1781 C   0  0  0  0  0  0  0  0  0  0  0  0
    3.7867    2.6246    0.8858 C   0  0  0  0  0  0  0  0  0  0  0  0
    4.3587    3.1830   -0.2552 C   0  0  0  0  0  0  0  0  0  0  0  0
    5.1445    2.4035   -1.1011 C   0  0  0  0  0  0  0  0  0  0  0  0
    5.3487    1.0572   -0.8198 C   0  0  0  0  0  0  0  0  0  0  0  0
   -0.2501   -2.4315    1.0025 H   0  0  0  0  0  0  0  0  0  0  0  0
   -0.9530   -2.8333   -1.9398 H   0  0  0  0  0  0  0  0  0  0  0  0
   -0.9538   -4.0554   -0.6586 H   0  0  0  0  0  0  0  0  0  0  0  0
   -2.5579   -3.5537    1.3985 H   0  0  0  0  0  0  0  0  0  0  0  0
   -4.7111   -2.5392    2.1214 H   0  0  0  0  0  0  0  0  0  0  0  0
   -5.0574   -0.5816   -1.6748 H   0  0  0  0  0  0  0  0  0  0  0  0
   -2.8895   -1.5353   -2.3660 H   0  0  0  0  0  0  0  0  0  0  0  0
   -7.3953    0.6069    0.9454 H   0  0  0  0  0  0  0  0  0  0  0  0
   -6.6036    0.5379   -0.6264 H   0  0  0  0  0  0  0  0  0  0  0  0
   -5.9572    2.3060    1.3546 H   0  0  0  0  0  0  0  0  0  0  0  0
   -4.8556    1.0152    1.8029 H   0  0  0  0  0  0  0  0  0  0  0  0
   -4.7550    1.8271   -1.0979 H   0  0  0  0  0  0  0  0  0  0  0  0
   -4.2775    3.0644    0.0433 H   0  0  0  0  0  0  0  0  0  0  0  0
   -2.6599    1.9657   -1.8765 H   0  0  0  0  0  0  0  0  0  0  0  0
   -0.4632    1.9412   -2.0686 H   0  0  0  0  0  0  0  0  0  0  0  0
   -1.0919   -0.3612    0.5741 H   0  0  0  0  0  0  0  0  0  0  0  0
    1.0346    2.2702   -0.2391 H   0  0  0  0  0  0  0  0  0  0  0  0
   -0.1409    1.6975    0.9579 H   0  0  0  0  0  0  0  0  0  0  0  0
   -1.6218    3.1739    1.8092 H   0  0  0  0  0  0  0  0  0  0  0  0
   -1.7223    4.8294    1.2846 H   0  0  0  0  0  0  0  0  0  0  0  0
    1.4067   -2.4676   -1.5224 H   0  0  0  0  0  0  0  0  0  0  0  0
    2.4915   -3.9345    0.0564 H   0  0  0  0  0  0  0  0  0  0  0  0
    2.2283   -1.5473    1.2697 H   0  0  0  0  0  0  0  0  0  0  0  0
    2.0992   -0.4926   -0.1675 H   0  0  0  0  0  0  0  0  0  0  0  0
    3.8286   -1.9038   -1.1895 H   0  0  0  0  0  0  0  0  0  0  0  0
    3.5663    0.8279    2.0728 H   0  0  0  0  0  0  0  0  0  0  0  0
    3.1890    3.2404    1.5527 H   0  0  0  0  0  0  0  0  0  0  0  0
    4.1963    4.2334   -0.4815 H   0  0  0  0  0  0  0  0  0  0  0  0
    5.6014    2.8460   -1.9818 H   0  0  0  0  0  0  0  0  0  0  0  0
    5.9706    0.4361   -1.4586 H   0  0  0  0  0  0  0  0  0  0  0  0
  1 37  1  1  0  0  0
  2 39  1  0  0  0  0
  2  3  1  0  0  0  0
  2  1  1  0  0  0  0
  3  4  2  0  0  0  0
  4  5  1  0  0  0  0
  4 40  1  0  0  0  0
  5 41  1  0  0  0  0
  6  9  1  0  0  0  0
  6  5  2  0  0  0  0
  7  6  1  0  0  0  0
  8  7  2  0  0  0  0
  8  3  1  0  0  0  0
 10  9  1  0  0  0  0
 10 44  1  0  0  0  0
 10 11  1  0  0  0  0
 11 46  1  0  0  0  0
 11 47  1  0  0  0  0
 12 49  1  0  0  0  0
 12 13  1  0  0  0  0
 12 11  1  0  0  0  0
 13 14  2  0  0  0  0
 15 13  1  0  0  0  0
 16 51  1  6  0  0  0
 16 15  1  0  0  0  0
 16 20  1  0  0  0  0
 17 16  1  0  0  0  0
 17 19  1  0  0  0  0
 18 17  2  0  0  0  0
 19  1  1  0  0  0  0
 19 52  1  0  0  0  0
 20 21  1  0  0  0  0
 20 54  1  0  0  0  0
 21 23  1  0  0  0  0
 22 21  2  0  0  0  0
 23 56  1  0  0  0  0
 23 55  1  0  0  0  0
 24 57  1  6  0  0  0
 24  1  1  0  0  0  0
 24 25  1  0  0  0  0
 24 26  1  0  0  0  0
 26 59  1  0  0  0  0
 27 26  1  0  0  0  0
 27 28  1  0  0  0  0
 28 29  2  0  0  0  0
 30 28  2  0  0  0  0
 31 28  1  0  0  0  0
 31 32  2  0  0  0  0
 32 62  1  0  0  0  0
 33 32  1  0  0  0  0
 33 63  1  0  0  0  0
 34 33  2  0  0  0  0
 35 36  2  0  0  0  0
 35 34  1  0  0  0  0
 36 31  1  0  0  0  0
 38  2  1  0  0  0  0
 42  7  1  0  0  0  0
 43  8  1  0  0  0  0
 45 10  1  0  0  0  0
 48 12  1  0  0  0  0
 50 15  1  0  0  0  0
 53 20  1  0  0  0  0
 58 25  1  0  0  0  0
 60 26  1  0  0  0  0
 61 27  1  0  0  0  0
 64 34  1  0  0  0  0
 65 35  1  0  0  0  0
 66 36  1  0  0  0  0
M  END
