omegapdb_1qxw_25.log
 OpenBabel09261812563D

 36 36  0  0  1  0  0  0  0  0999 V2000
    4.5506   -1.2432    0.4466 C   0  0  0  0  0  0  0  0  0  0  0  0
    4.3399   -0.6905   -0.9358 C   0  0  0  0  0  0  0  0  0  0  0  0
    3.7633    0.0160    0.2555 C   0  0  0  0  0  0  0  0  0  0  0  0
    2.3399   -0.0554    0.4366 N   0  0  0  0  0  0  0  0  0  0  0  0
    1.6304    0.9997   -0.2686 C   0  0  0  0  0  0  0  0  0  0  0  0
    0.1169    0.9589   -0.0348 C   0  0  0  0  0  0  0  0  0  0  0  0
   -0.5622   -0.3139   -0.6116 C   0  0  1  0  0  0  0  0  0  0  0  0
   -0.2819   -1.5226    0.1566 N   0  0  0  0  0  0  0  0  0  0  0  0
   -2.0758   -0.1675   -0.8354 C   0  0  0  0  0  0  0  0  0  0  0  0
   -2.9229    0.1698    0.3958 C   0  0  0  0  0  0  0  0  0  0  0  0
   -4.4311    0.0505    0.1466 C   0  0  0  0  0  0  0  0  0  0  0  0
   -4.9156   -1.3853   -0.0473 C   0  0  0  0  0  0  0  0  0  0  0  0
   -0.0340    1.0662    1.3696 O   0  0  0  0  0  0  0  0  0  0  0  0
   -0.4763    2.0622   -0.6779 O   0  0  0  0  0  0  0  0  0  0  0  0
    5.5389   -1.1696    0.8908 H   0  0  0  0  0  0  0  0  0  0  0  0
    3.9895   -2.1323    0.7186 H   0  0  0  0  0  0  0  0  0  0  0  0
    5.1833   -0.2374   -1.4484 H   0  0  0  0  0  0  0  0  0  0  0  0
    3.6359   -1.2128   -1.5774 H   0  0  0  0  0  0  0  0  0  0  0  0
    4.2508    0.9529    0.5458 H   0  0  0  0  0  0  0  0  0  0  0  0
    2.1095    0.0123    1.4250 H   0  0  0  0  0  0  0  0  0  0  0  0
    1.9806    2.0076    0.0312 H   0  0  0  0  0  0  0  0  0  0  0  0
    1.8191    0.8995   -1.3431 H   0  0  0  0  0  0  0  0  0  0  0  0
   -0.1204   -0.4634   -1.6053 H   0  0  0  0  0  0  0  0  0  0  0  0
    0.7294   -1.6402    0.1885 H   0  0  0  0  0  0  0  0  0  0  0  0
   -0.5544   -1.3641    1.1242 H   0  0  0  0  0  0  0  0  0  0  0  0
   -2.2537    0.5991   -1.5973 H   0  0  0  0  0  0  0  0  0  0  0  0
   -2.4020   -1.1285   -1.2484 H   0  0  0  0  0  0  0  0  0  0  0  0
   -2.7158    1.2067    0.6979 H   0  0  0  0  0  0  0  0  0  0  0  0
   -2.6596   -0.4874    1.2393 H   0  0  0  0  0  0  0  0  0  0  0  0
   -4.6954    0.6531   -0.7334 H   0  0  0  0  0  0  0  0  0  0  0  0
   -4.9662    0.4959    0.9951 H   0  0  0  0  0  0  0  0  0  0  0  0
   -6.0025   -1.4183   -0.1784 H   0  0  0  0  0  0  0  0  0  0  0  0
   -4.4635   -1.8541   -0.9275 H   0  0  0  0  0  0  0  0  0  0  0  0
   -4.6637   -2.0036    0.8226 H   0  0  0  0  0  0  0  0  0  0  0  0
   -0.9822    1.0818    1.5586 H   0  0  0  0  0  0  0  0  0  0  0  0
   -0.0429    2.8545   -0.3299 H   0  0  0  0  0  0  0  0  0  0  0  0
  1 16  1  0  0  0  0
  1 15  1  0  0  0  0
  2  3  1  0  0  0  0
  2  1  1  0  0  0  0
  3  4  1  0  0  0  0
  3  1  1  0  0  0  0
  3 19  1  0  0  0  0
  4 20  1  0  0  0  0
  5  6  1  0  0  0  0
  5 21  1  0  0  0  0
  5  4  1  0  0  0  0
  6 13  1  0  0  0  0
  7 23  1  6  0  0  0
  7  6  1  0  0  0  0
  7  8  1  0  0  0  0
  8 24  1  0  0  0  0
  8 25  1  0  0  0  0
  9  7  1  0  0  0  0
  9 10  1  0  0  0  0
 10 28  1  0  0  0  0
 10 29  1  0  0  0  0
 11 10  1  0  0  0  0
 11 31  1  0  0  0  0
 12 11  1  0  0  0  0
 12 34  1  0  0  0  0
 13 35  1  0  0  0  0
 14 36  1  0  0  0  0
 14  6  1  0  0  0  0
 17  2  1  0  0  0  0
 18  2  1  0  0  0  0
 22  5  1  0  0  0  0
 26  9  1  0  0  0  0
 27  9  1  0  0  0  0
 30 11  1  0  0  0  0
 32 12  1  0  0  0  0
 33 12  1  0  0  0  0
M  END
