omegapdb_1z1r_14.log
 OpenBabel09261812563D

 66 68  0  0  1  0  0  0  0  0999 V2000
    0.3152   -0.9295   -0.1251 C   0  0  2  0  0  0  0  0  0  0  0  0
   -0.0049   -2.3053   -0.7596 C   0  0  0  0  0  0  0  0  0  0  0  0
   -1.3794   -2.7765   -0.3592 C   0  0  0  0  0  0  0  0  0  0  0  0
   -2.3936   -2.8604   -1.3112 C   0  0  0  0  0  0  0  0  0  0  0  0
   -3.7246   -2.9921   -0.9294 C   0  0  0  0  0  0  0  0  0  0  0  0
   -4.0531   -3.0082    0.4216 C   0  0  0  0  0  0  0  0  0  0  0  0
   -3.0442   -3.0543    1.3829 C   0  0  0  0  0  0  0  0  0  0  0  0
   -1.7163   -2.9495    0.9872 C   0  0  0  0  0  0  0  0  0  0  0  0
   -5.3693   -2.8857    0.7966 O   0  0  0  0  0  0  0  0  0  0  0  0
   -5.6553   -1.5629    1.2709 C   0  0  0  0  0  0  0  0  0  0  0  0
   -5.5192   -0.5093    0.1706 C   0  0  0  0  0  0  0  0  0  0  0  0
   -5.4486    0.9241    0.7115 C   0  0  0  0  0  0  0  0  0  0  0  0
   -4.2073    1.1893    1.5434 C   0  0  0  0  0  0  0  0  0  0  0  0
   -4.2421    1.2289    2.7617 O   0  0  0  0  0  0  0  0  0  0  0  0
   -2.9793    1.3574    0.9164 N   0  0  0  0  0  0  0  0  0  0  0  0
   -2.6468    1.5604   -0.4817 C   0  0  2  0  0  0  0  0  0  0  0  0
   -1.3955    0.7607   -0.9178 C   0  0  0  0  0  0  0  0  0  0  0  0
   -0.9263    0.9660   -2.0379 O   0  0  0  0  0  0  0  0  0  0  0  0
   -0.8633   -0.0583    0.0075 N   0  0  0  0  0  0  0  0  0  0  0  0
   -2.3920    3.0326   -0.8272 C   0  0  0  0  0  0  0  0  0  0  0  0
   -3.6734    3.8481   -0.8720 C   0  0  0  0  0  0  0  0  0  0  0  0
   -4.7393    3.3687   -1.2262 O   0  0  0  0  0  0  0  0  0  0  0  0
   -3.5442    5.1545   -0.5293 N   0  0  0  0  0  0  0  0  0  0  0  0
    1.4944   -0.2164   -0.8262 C   0  0  2  0  0  0  0  0  0  0  0  0
    1.4464   -0.3023   -2.2294 O   0  0  0  0  0  0  0  0  0  0  0  0
    2.8249   -0.8335   -0.4086 C   0  0  0  0  0  0  0  0  0  0  0  0
    3.8799   -0.1378   -1.1381 N   0  0  0  0  0  0  0  0  0  0  0  0
    5.4412   -0.6658   -0.9114 S   0  0  0  0  0  0  0  0  0  0  0  0
    5.4561   -2.0705   -0.5235 O   0  0  0  0  0  0  0  0  0  0  0  0
    6.1792   -0.1963   -2.0724 O   0  0  0  0  0  0  0  0  0  0  0  0
    5.9458    0.2725    0.5122 C   0  0  0  0  0  0  0  0  0  0  0  0
    6.0987   -0.3687    1.7350 C   0  0  0  0  0  0  0  0  0  0  0  0
    6.4983    0.3767    2.8420 C   0  0  0  0  0  0  0  0  0  0  0  0
    6.7420    1.7397    2.7116 C   0  0  0  0  0  0  0  0  0  0  0  0
    6.5921    2.3687    1.4756 C   0  0  0  0  0  0  0  0  0  0  0  0
    6.1929    1.6356    0.3664 C   0  0  0  0  0  0  0  0  0  0  0  0
    0.6236   -1.0958    0.9152 H   0  0  0  0  0  0  0  0  0  0  0  0
    0.7746   -3.0124   -0.4504 H   0  0  0  0  0  0  0  0  0  0  0  0
    0.0621   -2.2103   -1.8471 H   0  0  0  0  0  0  0  0  0  0  0  0
   -2.1471   -2.7535   -2.3656 H   0  0  0  0  0  0  0  0  0  0  0  0
   -4.5247   -2.9946   -1.6645 H   0  0  0  0  0  0  0  0  0  0  0  0
   -3.3121   -3.1246    2.4340 H   0  0  0  0  0  0  0  0  0  0  0  0
   -0.9337   -2.9423    1.7456 H   0  0  0  0  0  0  0  0  0  0  0  0
   -6.6806   -1.6046    1.6487 H   0  0  0  0  0  0  0  0  0  0  0  0
   -4.9962   -1.3208    2.1166 H   0  0  0  0  0  0  0  0  0  0  0  0
   -6.3610   -0.5950   -0.5255 H   0  0  0  0  0  0  0  0  0  0  0  0
   -4.6145   -0.7161   -0.4116 H   0  0  0  0  0  0  0  0  0  0  0  0
   -6.2890    1.1216    1.3839 H   0  0  0  0  0  0  0  0  0  0  0  0
   -5.5037    1.6377   -0.1161 H   0  0  0  0  0  0  0  0  0  0  0  0
   -2.2859    1.6701    1.5875 H   0  0  0  0  0  0  0  0  0  0  0  0
   -3.4824    1.2124   -1.0968 H   0  0  0  0  0  0  0  0  0  0  0  0
   -1.4696   -0.2554    0.7939 H   0  0  0  0  0  0  0  0  0  0  0  0
   -1.9348    3.0736   -1.8217 H   0  0  0  0  0  0  0  0  0  0  0  0
   -1.6717    3.4616   -0.1185 H   0  0  0  0  0  0  0  0  0  0  0  0
   -2.6576    5.5681   -0.2923 H   0  0  0  0  0  0  0  0  0  0  0  0
   -4.3488    5.7547   -0.6303 H   0  0  0  0  0  0  0  0  0  0  0  0
    1.4929    0.8367   -0.5035 H   0  0  0  0  0  0  0  0  0  0  0  0
    0.6420    0.1872   -2.4932 H   0  0  0  0  0  0  0  0  0  0  0  0
    2.8359   -1.9118   -0.6155 H   0  0  0  0  0  0  0  0  0  0  0  0
    2.9842   -0.6868    0.6663 H   0  0  0  0  0  0  0  0  0  0  0  0
    3.6735   -0.0808   -2.1342 H   0  0  0  0  0  0  0  0  0  0  0  0
    5.9188   -1.4375    1.8033 H   0  0  0  0  0  0  0  0  0  0  0  0
    6.6257   -0.1115    3.8042 H   0  0  0  0  0  0  0  0  0  0  0  0
    7.0573    2.3177    3.5765 H   0  0  0  0  0  0  0  0  0  0  0  0
    6.7924    3.4320    1.3769 H   0  0  0  0  0  0  0  0  0  0  0  0
    6.0802    2.1033   -0.6075 H   0  0  0  0  0  0  0  0  0  0  0  0
  1 19  1  0  0  0  0
  1 37  1  1  0  0  0
  2 38  1  0  0  0  0
  2  3  1  0  0  0  0
  2  1  1  0  0  0  0
  3  8  2  0  0  0  0
  4  5  2  0  0  0  0
  4  3  1  0  0  0  0
  5  6  1  0  0  0  0
  6  9  1  0  0  0  0
  6  7  2  0  0  0  0
  7 42  1  0  0  0  0
  8  7  1  0  0  0  0
  8 43  1  0  0  0  0
  9 10  1  0  0  0  0
 10 44  1  0  0  0  0
 10 45  1  0  0  0  0
 11 12  1  0  0  0  0
 11 10  1  0  0  0  0
 12 48  1  0  0  0  0
 12 13  1  0  0  0  0
 13 14  2  0  0  0  0
 15 13  1  0  0  0  0
 15 50  1  0  0  0  0
 16 51  1  6  0  0  0
 16 15  1  0  0  0  0
 17 16  1  0  0  0  0
 17 19  1  0  0  0  0
 18 17  2  0  0  0  0
 19 52  1  0  0  0  0
 20 16  1  0  0  0  0
 20 54  1  0  0  0  0
 21 20  1  0  0  0  0
 21 23  1  0  0  0  0
 22 21  2  0  0  0  0
 23 55  1  0  0  0  0
 24 57  1  1  0  0  0
 24 26  1  0  0  0  0
 24  1  1  0  0  0  0
 25 24  1  0  0  0  0
 26 60  1  0  0  0  0
 27 28  1  0  0  0  0
 27 26  1  0  0  0  0
 28 29  2  0  0  0  0
 28 31  1  0  0  0  0
 30 28  2  0  0  0  0
 31 32  1  0  0  0  0
 32 62  1  0  0  0  0
 32 33  2  0  0  0  0
 33 63  1  0  0  0  0
 34 33  1  0  0  0  0
 34 64  1  0  0  0  0
 35 34  2  0  0  0  0
 36 31  2  0  0  0  0
 36 35  1  0  0  0  0
 39  2  1  0  0  0  0
 40  4  1  0  0  0  0
 41  5  1  0  0  0  0
 46 11  1  0  0  0  0
 47 11  1  0  0  0  0
 49 12  1  0  0  0  0
 53 20  1  0  0  0  0
 56 23  1  0  0  0  0
 58 25  1  0  0  0  0
 59 26  1  0  0  0  0
 61 27  1  0  0  0  0
 65 35  1  0  0  0  0
 66 36  1  0  0  0  0
M  END
