omegapdb_1m5f_23.log
 OpenBabel09261812563D

 25 25  0  0  1  0  0  0  0  0999 V2000
   -3.2878   -1.2392   -0.4309 O   0  0  0  0  0  0  0  0  0  0  0  0
   -2.2209   -1.0178    0.3488 C   0  0  0  0  0  0  0  0  0  0  0  0
   -1.9123   -1.7623    1.2421 O   0  0  0  0  0  0  0  0  0  0  0  0
   -1.4825    0.2469    0.0365 C   0  0  0  0  0  0  0  0  0  0  0  0
   -2.0515    1.1124   -0.7618 N   0  0  0  0  0  0  0  0  0  0  0  0
   -1.2052    2.1772   -0.8234 O   0  0  0  0  0  0  0  0  0  0  0  0
   -0.1229    1.9403   -0.0497 C   0  0  0  0  0  0  0  0  0  0  0  0
   -0.2322    0.7120    0.5308 C   0  0  0  0  0  0  0  0  0  0  0  0
    0.7139   -0.0270    1.4297 C   0  0  0  0  0  0  0  0  0  0  0  0
    1.9682   -0.5653    0.7303 C   0  0  2  0  0  0  0  0  0  0  0  0
    2.8322    0.5266    0.2864 N   0  0  0  0  0  0  0  0  0  0  0  0
    1.6181   -1.4435   -0.4611 C   0  0  0  0  0  0  0  0  0  0  0  0
    0.5344   -1.9011   -0.7208 O   0  0  0  0  0  0  0  0  0  0  0  0
    2.7117   -1.7110   -1.2070 O   0  0  0  0  0  0  0  0  0  0  0  0
    0.8890    3.0298   -0.0006 C   0  0  0  0  0  0  0  0  0  0  0  0
   -3.3754   -0.5018   -1.0602 H   0  0  0  0  0  0  0  0  0  0  0  0
    0.1713   -0.8609    1.8818 H   0  0  0  0  0  0  0  0  0  0  0  0
    1.0482    0.6270    2.2462 H   0  0  0  0  0  0  0  0  0  0  0  0
    2.4734   -1.2454    1.4406 H   0  0  0  0  0  0  0  0  0  0  0  0
    3.5962    0.1536   -0.2697 H   0  0  0  0  0  0  0  0  0  0  0  0
    3.2484    0.9722    1.0995 H   0  0  0  0  0  0  0  0  0  0  0  0
    2.4123   -2.2863   -1.9304 H   0  0  0  0  0  0  0  0  0  0  0  0
    1.3816    3.0401    0.9751 H   0  0  0  0  0  0  0  0  0  0  0  0
    0.4059    3.9960   -0.1684 H   0  0  0  0  0  0  0  0  0  0  0  0
    1.6632    2.8716   -0.7557 H   0  0  0  0  0  0  0  0  0  0  0  0
  1  2  1  0  0  0  0
  2  3  2  0  0  0  0
  4  2  1  0  0  0  0
  4  8  1  0  0  0  0
  5  4  2  0  0  0  0
  6  5  1  0  0  0  0
  6  7  1  0  0  0  0
  7 15  1  0  0  0  0
  7  8  2  0  0  0  0
  8  9  1  0  0  0  0
  9 17  1  0  0  0  0
  9 18  1  0  0  0  0
 10  9  1  0  0  0  0
 10 19  1  1  0  0  0
 11 10  1  0  0  0  0
 11 21  1  0  0  0  0
 12 10  1  0  0  0  0
 13 12  2  0  0  0  0
 14 12  1  0  0  0  0
 15 23  1  0  0  0  0
 16  1  1  0  0  0  0
 20 11  1  0  0  0  0
 22 14  1  0  0  0  0
 24 15  1  0  0  0  0
 25 15  1  0  0  0  0
M  END
