omegapdb_2byh_04.log
 OpenBabel09261812563D

 40 42  0  0  0  0  0  0  0  0999 V2000
    5.9809    1.8549    0.5144 O   0  0  0  0  0  0  0  0  0  0  0  0
    5.7913    0.6720    0.3021 C   0  0  0  0  0  0  0  0  0  0  0  0
    6.9553   -0.2801    0.1209 C   0  0  0  0  0  0  0  0  0  0  0  0
    4.4014    0.1262    0.2157 C   0  0  0  0  0  0  0  0  0  0  0  0
    3.3308    1.0090    0.3880 C   0  0  0  0  0  0  0  0  0  0  0  0
    2.0277    0.5556    0.3174 C   0  0  0  0  0  0  0  0  0  0  0  0
    1.7595   -0.7993    0.0735 C   0  0  0  0  0  0  0  0  0  0  0  0
    2.8195   -1.6933   -0.1021 C   0  0  0  0  0  0  0  0  0  0  0  0
    4.1242   -1.2190   -0.0290 C   0  0  0  0  0  0  0  0  0  0  0  0
    0.4073   -1.1754    0.0217 N   0  0  0  0  0  0  0  0  0  0  0  0
   -0.1279   -2.4005   -0.2925 C   0  0  0  0  0  0  0  0  0  0  0  0
    0.5343   -3.3935   -0.5443 O   0  0  0  0  0  0  0  0  0  0  0  0
   -1.6129   -2.4676   -0.3071 C   0  0  0  0  0  0  0  0  0  0  0  0
   -2.3174   -3.6830   -0.4806 C   0  0  0  0  0  0  0  0  0  0  0  0
   -3.6247   -3.5105   -0.4322 N   0  0  0  0  0  0  0  0  0  0  0  0
   -3.7760   -2.1926   -0.2255 N   0  0  0  0  0  0  0  0  0  0  0  0
   -2.6045   -1.5066   -0.1573 C   0  0  0  0  0  0  0  0  0  0  0  0
   -2.5892   -0.0452    0.0601 C   0  0  0  0  0  0  0  0  0  0  0  0
   -2.0598    0.8237   -0.8987 C   0  0  0  0  0  0  0  0  0  0  0  0
   -2.0507    2.1907   -0.6886 C   0  0  0  0  0  0  0  0  0  0  0  0
   -1.3856    3.2667   -1.8853 Cl  0  0  0  0  0  0  0  0  0  0  0  0
   -2.5898    2.7334    0.4899 C   0  0  0  0  0  0  0  0  0  0  0  0
   -2.6143    4.0535    0.7431 O   0  0  0  0  0  0  0  0  0  0  0  0
   -3.1191    1.8774    1.4495 C   0  0  0  0  0  0  0  0  0  0  0  0
   -3.1171    0.5026    1.2451 C   0  0  0  0  0  0  0  0  0  0  0  0
   -3.6416   -0.2646    2.2284 O   0  0  0  0  0  0  0  0  0  0  0  0
    7.8851    0.2840    0.2063 H   0  0  0  0  0  0  0  0  0  0  0  0
    6.9124   -0.7674   -0.8595 H   0  0  0  0  0  0  0  0  0  0  0  0
    6.9359   -1.0675    0.8825 H   0  0  0  0  0  0  0  0  0  0  0  0
    3.5491    2.0561    0.5756 H   0  0  0  0  0  0  0  0  0  0  0  0
    1.2003    1.2526    0.4454 H   0  0  0  0  0  0  0  0  0  0  0  0
    2.6142   -2.7378   -0.2932 H   0  0  0  0  0  0  0  0  0  0  0  0
    4.9358   -1.9290   -0.1666 H   0  0  0  0  0  0  0  0  0  0  0  0
   -0.2481   -0.4359    0.2336 H   0  0  0  0  0  0  0  0  0  0  0  0
   -1.8882   -4.6646   -0.6291 H   0  0  0  0  0  0  0  0  0  0  0  0
   -4.7046   -1.7950   -0.2396 H   0  0  0  0  0  0  0  0  0  0  0  0
   -1.6515    0.4207   -1.8218 H   0  0  0  0  0  0  0  0  0  0  0  0
   -2.2175    4.5324   -0.0007 H   0  0  0  0  0  0  0  0  0  0  0  0
   -3.5251    2.2885    2.3672 H   0  0  0  0  0  0  0  0  0  0  0  0
   -3.4902   -1.2005    2.0296 H   0  0  0  0  0  0  0  0  0  0  0  0
  2  1  2  0  0  0  0
  3 27  1  0  0  0  0
  3  2  1  0  0  0  0
  3 29  1  0  0  0  0
  4  2  1  0  0  0  0
  4  5  2  0  0  0  0
  5 30  1  0  0  0  0
  6  5  1  0  0  0  0
  6 31  1  0  0  0  0
  7  6  2  0  0  0  0
  8  9  2  0  0  0  0
  8  7  1  0  0  0  0
  9  4  1  0  0  0  0
 10  7  1  0  0  0  0
 10 34  1  0  0  0  0
 11 10  1  0  0  0  0
 12 11  2  0  0  0  0
 13 11  1  0  0  0  0
 13 17  2  0  0  0  0
 14 15  2  0  0  0  0
 14 13  1  0  0  0  0
 15 16  1  0  0  0  0
 16 17  1  0  0  0  0
 17 18  1  0  0  0  0
 18 25  2  0  0  0  0
 19 20  2  0  0  0  0
 19 18  1  0  0  0  0
 20 22  1  0  0  0  0
 21 20  1  0  0  0  0
 22 23  1  0  0  0  0
 22 24  2  0  0  0  0
 24 39  1  0  0  0  0
 25 24  1  0  0  0  0
 25 26  1  0  0  0  0
 28  3  1  0  0  0  0
 32  8  1  0  0  0  0
 33  9  1  0  0  0  0
 35 14  1  0  0  0  0
 36 16  1  0  0  0  0
 37 19  1  0  0  0  0
 38 23  1  0  0  0  0
 40 26  1  0  0  0  0
M  END
