omegapdb_1m5f_03.log
 OpenBabel09261812563D

 25 25  0  0  1  0  0  0  0  0999 V2000
    2.1210    2.8593    0.2784 O   0  0  0  0  0  0  0  0  0  0  0  0
    1.1437    1.9939    0.0290 C   0  0  0  0  0  0  0  0  0  0  0  0
   -0.0049    2.3546   -0.1100 O   0  0  0  0  0  0  0  0  0  0  0  0
    1.5591    0.5659   -0.0461 C   0  0  0  0  0  0  0  0  0  0  0  0
    2.7821    0.2437    0.2961 N   0  0  0  0  0  0  0  0  0  0  0  0
    2.8475   -1.1081    0.1916 O   0  0  0  0  0  0  0  0  0  0  0  0
    1.6511   -1.5942   -0.2111 C   0  0  0  0  0  0  0  0  0  0  0  0
    0.7803   -0.5652   -0.4004 C   0  0  0  0  0  0  0  0  0  0  0  0
   -0.6540   -0.5710   -0.8167 C   0  0  0  0  0  0  0  0  0  0  0  0
   -1.5900   -0.4547    0.4069 C   0  0  2  0  0  0  0  0  0  0  0  0
   -1.7978   -1.7717    0.9825 N   0  0  0  0  0  0  0  0  0  0  0  0
   -2.8902    0.2430   -0.0093 C   0  0  0  0  0  0  0  0  0  0  0  0
   -3.9495   -0.3308   -0.0597 O   0  0  0  0  0  0  0  0  0  0  0  0
   -2.7681    1.5319   -0.3482 O   0  0  0  0  0  0  0  0  0  0  0  0
    1.5185   -3.0693   -0.3408 C   0  0  0  0  0  0  0  0  0  0  0  0
    2.9596    2.3726    0.3812 H   0  0  0  0  0  0  0  0  0  0  0  0
   -0.8242    0.2503   -1.5196 H   0  0  0  0  0  0  0  0  0  0  0  0
   -0.8961   -1.5006   -1.3422 H   0  0  0  0  0  0  0  0  0  0  0  0
   -1.1019    0.1837    1.1535 H   0  0  0  0  0  0  0  0  0  0  0  0
   -2.5842   -2.1926    0.4880 H   0  0  0  0  0  0  0  0  0  0  0  0
   -2.1185   -1.6750    1.9421 H   0  0  0  0  0  0  0  0  0  0  0  0
   -1.8464    1.8403   -0.2387 H   0  0  0  0  0  0  0  0  0  0  0  0
    0.4914   -3.3534   -0.0957 H   0  0  0  0  0  0  0  0  0  0  0  0
    2.1994   -3.5711    0.3510 H   0  0  0  0  0  0  0  0  0  0  0  0
    1.7522   -3.4035   -1.3571 H   0  0  0  0  0  0  0  0  0  0  0  0
  1 16  1  0  0  0  0
  2  1  1  0  0  0  0
  3  2  2  0  0  0  0
  4  2  1  0  0  0  0
  4  5  2  0  0  0  0
  6  5  1  0  0  0  0
  7  6  1  0  0  0  0
  8  7  2  0  0  0  0
  8  4  1  0  0  0  0
  9  8  1  0  0  0  0
  9 10  1  0  0  0  0
 10 11  1  0  0  0  0
 10 19  1  1  0  0  0
 11 21  1  0  0  0  0
 12 10  1  0  0  0  0
 13 12  2  0  0  0  0
 14 22  1  0  0  0  0
 14 12  1  0  0  0  0
 15  7  1  0  0  0  0
 15 23  1  0  0  0  0
 15 24  1  0  0  0  0
 17  9  1  0  0  0  0
 18  9  1  0  0  0  0
 20 11  1  0  0  0  0
 25 15  1  0  0  0  0
M  END
