omegapdb_1qxw_15.log
 OpenBabel09261812563D

 36 36  0  0  1  0  0  0  0  0999 V2000
   -4.9057   -1.0977    0.2983 C   0  0  0  0  0  0  0  0  0  0  0  0
   -4.5024   -0.7620   -1.1161 C   0  0  0  0  0  0  0  0  0  0  0  0
   -3.8886   -0.0327    0.0511 C   0  0  0  0  0  0  0  0  0  0  0  0
   -2.5233   -0.2472    0.4513 N   0  0  0  0  0  0  0  0  0  0  0  0
   -1.5375    0.3226   -0.4608 C   0  0  0  0  0  0  0  0  0  0  0  0
   -0.1821    0.2752    0.2437 C   0  0  0  0  0  0  0  0  0  0  0  0
    0.9103    1.0676   -0.4951 C   0  0  1  0  0  0  0  0  0  0  0  0
    0.4657    2.4600   -0.5480 N   0  0  0  0  0  0  0  0  0  0  0  0
    2.3066    0.8685    0.1337 C   0  0  0  0  0  0  0  0  0  0  0  0
    3.1035   -0.3161   -0.4174 C   0  0  0  0  0  0  0  0  0  0  0  0
    4.4701   -0.4737    0.2475 C   0  0  0  0  0  0  0  0  0  0  0  0
    5.2797   -1.6306   -0.3326 C   0  0  0  0  0  0  0  0  0  0  0  0
    0.1433   -1.1065    0.3409 O   0  0  0  0  0  0  0  0  0  0  0  0
   -0.3031    0.8192    1.5300 O   0  0  0  0  0  0  0  0  0  0  0  0
   -5.8917   -0.8038    0.6462 H   0  0  0  0  0  0  0  0  0  0  0  0
   -4.5556   -2.0417    0.7103 H   0  0  0  0  0  0  0  0  0  0  0  0
   -5.2119   -0.2356   -1.7485 H   0  0  0  0  0  0  0  0  0  0  0  0
   -3.8784   -1.4814   -1.6413 H   0  0  0  0  0  0  0  0  0  0  0  0
   -4.2089    0.9968    0.2022 H   0  0  0  0  0  0  0  0  0  0  0  0
   -2.3307   -1.2400    0.5560 H   0  0  0  0  0  0  0  0  0  0  0  0
   -1.7881    1.3679   -0.6586 H   0  0  0  0  0  0  0  0  0  0  0  0
   -1.4732   -0.2059   -1.4244 H   0  0  0  0  0  0  0  0  0  0  0  0
    0.9348    0.6875   -1.5263 H   0  0  0  0  0  0  0  0  0  0  0  0
    0.3844    2.8004    0.4073 H   0  0  0  0  0  0  0  0  0  0  0  0
    1.1704    3.0272   -1.0102 H   0  0  0  0  0  0  0  0  0  0  0  0
    2.8868    1.7843   -0.0477 H   0  0  0  0  0  0  0  0  0  0  0  0
    2.2070    0.7948    1.2265 H   0  0  0  0  0  0  0  0  0  0  0  0
    3.2434   -0.1774   -1.4998 H   0  0  0  0  0  0  0  0  0  0  0  0
    2.5275   -1.2432   -0.3091 H   0  0  0  0  0  0  0  0  0  0  0  0
    4.3332   -0.6239    1.3276 H   0  0  0  0  0  0  0  0  0  0  0  0
    5.0351    0.4629    0.1405 H   0  0  0  0  0  0  0  0  0  0  0  0
    6.2531   -1.7284    0.1596 H   0  0  0  0  0  0  0  0  0  0  0  0
    5.4594   -1.4851   -1.4043 H   0  0  0  0  0  0  0  0  0  0  0  0
    4.7471   -2.5816   -0.2134 H   0  0  0  0  0  0  0  0  0  0  0  0
    0.7310   -1.1814    1.1053 H   0  0  0  0  0  0  0  0  0  0  0  0
   -1.2158    0.5898    1.7962 H   0  0  0  0  0  0  0  0  0  0  0  0
  1 15  1  0  0  0  0
  1 16  1  0  0  0  0
  2  3  1  0  0  0  0
  2  1  1  0  0  0  0
  3 19  1  0  0  0  0
  3  1  1  0  0  0  0
  3  4  1  0  0  0  0
  4 20  1  0  0  0  0
  5  6  1  0  0  0  0
  5  4  1  0  0  0  0
  6 13  1  0  0  0  0
  6 14  1  0  0  0  0
  7 23  1  6  0  0  0
  7  9  1  0  0  0  0
  7  6  1  0  0  0  0
  8  7  1  0  0  0  0
  8 24  1  0  0  0  0
  9 27  1  0  0  0  0
 10 29  1  0  0  0  0
 10  9  1  0  0  0  0
 10 11  1  0  0  0  0
 11 30  1  0  0  0  0
 12 34  1  0  0  0  0
 12 32  1  0  0  0  0
 12 11  1  0  0  0  0
 13 35  1  0  0  0  0
 14 36  1  0  0  0  0
 17  2  1  0  0  0  0
 18  2  1  0  0  0  0
 21  5  1  0  0  0  0
 22  5  1  0  0  0  0
 25  8  1  0  0  0  0
 26  9  1  0  0  0  0
 28 10  1  0  0  0  0
 31 11  1  0  0  0  0
 33 12  1  0  0  0  0
M  END
