omegapdb_2byh_09.log
 OpenBabel09261812563D

 40 42  0  0  0  0  0  0  0  0999 V2000
   -7.6398   -0.3234    0.7698 O   0  0  0  0  0  0  0  0  0  0  0  0
   -6.7202   -1.0287    0.3998 C   0  0  0  0  0  0  0  0  0  0  0  0
   -6.9414   -2.4953    0.0945 C   0  0  0  0  0  0  0  0  0  0  0  0
   -5.3456   -0.4614    0.2356 C   0  0  0  0  0  0  0  0  0  0  0  0
   -4.2514   -1.2193   -0.1816 C   0  0  0  0  0  0  0  0  0  0  0  0
   -2.9867   -0.6590   -0.3206 C   0  0  0  0  0  0  0  0  0  0  0  0
   -2.8073    0.6979   -0.0372 C   0  0  0  0  0  0  0  0  0  0  0  0
   -3.9018    1.4679    0.3818 C   0  0  0  0  0  0  0  0  0  0  0  0
   -5.1513    0.8941    0.5164 C   0  0  0  0  0  0  0  0  0  0  0  0
   -1.5723    1.3595   -0.1530 N   0  0  0  0  0  0  0  0  0  0  0  0
   -0.3497    0.8413   -0.5150 C   0  0  0  0  0  0  0  0  0  0  0  0
   -0.1613   -0.3403   -0.7584 O   0  0  0  0  0  0  0  0  0  0  0  0
    0.7199    1.8647   -0.5942 C   0  0  0  0  0  0  0  0  0  0  0  0
    0.5871    3.2360   -0.9272 C   0  0  0  0  0  0  0  0  0  0  0  0
    1.7448    3.8684   -0.9049 N   0  0  0  0  0  0  0  0  0  0  0  0
    2.6249    2.9221   -0.5467 N   0  0  0  0  0  0  0  0  0  0  0  0
    2.0810    1.6899   -0.3611 C   0  0  0  0  0  0  0  0  0  0  0  0
    2.9259    0.5482    0.0325 C   0  0  0  0  0  0  0  0  0  0  0  0
    2.7934   -0.6972   -0.5870 C   0  0  0  0  0  0  0  0  0  0  0  0
    3.6438   -1.7374   -0.2642 C   0  0  0  0  0  0  0  0  0  0  0  0
    3.4805   -3.2870   -1.0481 Cl  0  0  0  0  0  0  0  0  0  0  0  0
    4.6557   -1.5709    0.6920 C   0  0  0  0  0  0  0  0  0  0  0  0
    5.5114   -2.5516    1.0361 O   0  0  0  0  0  0  0  0  0  0  0  0
    4.7817   -0.3415    1.3299 C   0  0  0  0  0  0  0  0  0  0  0  0
    3.9265    0.7033    1.0115 C   0  0  0  0  0  0  0  0  0  0  0  0
    4.1247    1.8755    1.6805 O   0  0  0  0  0  0  0  0  0  0  0  0
   -6.3087   -3.1269    0.7279 H   0  0  0  0  0  0  0  0  0  0  0  0
   -7.9905   -2.7341    0.2750 H   0  0  0  0  0  0  0  0  0  0  0  0
   -6.6918   -2.7173   -0.9491 H   0  0  0  0  0  0  0  0  0  0  0  0
   -4.3718   -2.2762   -0.4056 H   0  0  0  0  0  0  0  0  0  0  0  0
   -2.1442   -1.2580   -0.6375 H   0  0  0  0  0  0  0  0  0  0  0  0
   -3.7640    2.5255    0.6010 H   0  0  0  0  0  0  0  0  0  0  0  0
   -6.0052    1.4815    0.8409 H   0  0  0  0  0  0  0  0  0  0  0  0
   -1.5779    2.3287    0.1295 H   0  0  0  0  0  0  0  0  0  0  0  0
   -0.3088    3.7751   -1.2132 H   0  0  0  0  0  0  0  0  0  0  0  0
    3.6096    3.1484   -0.5258 H   0  0  0  0  0  0  0  0  0  0  0  0
    2.0044   -0.8472   -1.3148 H   0  0  0  0  0  0  0  0  0  0  0  0
    5.2990   -3.3495    0.5280 H   0  0  0  0  0  0  0  0  0  0  0  0
    5.5426   -0.2061    2.0905 H   0  0  0  0  0  0  0  0  0  0  0  0
    3.3182    2.4086    1.6420 H   0  0  0  0  0  0  0  0  0  0  0  0
  2  1  2  0  0  0  0
  3 28  1  0  0  0  0
  3  2  1  0  0  0  0
  3 27  1  0  0  0  0
  4  2  1  0  0  0  0
  4  9  2  0  0  0  0
  5  4  1  0  0  0  0
  6  5  2  0  0  0  0
  6  7  1  0  0  0  0
  7  8  2  0  0  0  0
  8  9  1  0  0  0  0
  8 32  1  0  0  0  0
  9 33  1  0  0  0  0
 10  7  1  0  0  0  0
 10 34  1  0  0  0  0
 11 10  1  0  0  0  0
 12 11  2  0  0  0  0
 13 11  1  0  0  0  0
 13 17  2  0  0  0  0
 14 15  2  0  0  0  0
 14 13  1  0  0  0  0
 15 16  1  0  0  0  0
 16 36  1  0  0  0  0
 16 17  1  0  0  0  0
 17 18  1  0  0  0  0
 18 25  2  0  0  0  0
 19 20  2  0  0  0  0
 19 18  1  0  0  0  0
 20 22  1  0  0  0  0
 21 20  1  0  0  0  0
 22 23  1  0  0  0  0
 22 24  2  0  0  0  0
 24 39  1  0  0  0  0
 25 24  1  0  0  0  0
 25 26  1  0  0  0  0
 29  3  1  0  0  0  0
 30  5  1  0  0  0  0
 31  6  1  0  0  0  0
 35 14  1  0  0  0  0
 37 19  1  0  0  0  0
 38 23  1  0  0  0  0
 40 26  1  0  0  0  0
M  END
