omegapdb_1v2k_18.log
 OpenBabel09261812563D

 61 65  0  0  0  0  0  0  0  0999 V2000
    9.4552   -2.0876   -0.7152 N   0  0  0  0  0  0  0  0  0  0  0  0
    8.4187   -2.7741   -0.2300 C   0  0  0  0  0  0  0  0  0  0  0  0
    7.2043   -2.2242    0.1510 C   0  0  0  0  0  0  0  0  0  0  0  0
    7.0117   -0.8340    0.0408 C   0  0  0  0  0  0  0  0  0  0  0  0
    8.0987   -0.1045   -0.4782 C   0  0  0  0  0  0  0  0  0  0  0  0
    9.2627   -0.7715   -0.8269 C   0  0  0  0  0  0  0  0  0  0  0  0
    5.8428   -0.2043    0.4090 N   0  0  0  0  0  0  0  0  0  0  0  0
    5.5699    1.1368   -0.1009 C   0  0  0  0  0  0  0  0  0  0  0  0
    4.0875    1.4806   -0.0021 C   0  0  0  0  0  0  0  0  0  0  0  0
    3.6231    1.3473    1.4549 C   0  0  0  0  0  0  0  0  0  0  0  0
    3.9863   -0.0442    2.0346 C   0  0  0  0  0  0  0  0  0  0  0  0
    4.7613   -0.9299    1.0522 C   0  0  0  0  0  0  0  0  0  0  0  0
    2.1842    1.8248    1.6721 C   0  0  0  0  0  0  0  0  0  0  0  0
    1.9971    2.9091    2.2053 O   0  0  0  0  0  0  0  0  0  0  0  0
    1.1259    1.0427    1.2738 N   0  0  0  0  0  0  0  0  0  0  0  0
   -0.2276    1.5355    1.4808 C   0  0  0  0  0  0  0  0  0  0  0  0
   -0.9288    1.7554    0.1456 C   0  0  0  0  0  0  0  0  0  0  0  0
   -0.8920    0.5022   -0.6202 N   0  0  0  0  0  0  0  0  0  0  0  0
    0.4785    0.0359   -0.8652 C   0  0  0  0  0  0  0  0  0  0  0  0
    1.1701   -0.1719    0.4794 C   0  0  0  0  0  0  0  0  0  0  0  0
   -1.8637    0.5012   -1.9935 S   0  0  0  0  0  0  0  0  0  0  0  0
   -1.7824    1.7848   -2.6787 O   0  0  0  0  0  0  0  0  0  0  0  0
   -1.5571   -0.7345   -2.6959 O   0  0  0  0  0  0  0  0  0  0  0  0
   -3.4890    0.3783   -1.2852 C   0  0  0  0  0  0  0  0  0  0  0  0
   -3.9196   -0.8371   -0.8241 C   0  0  0  0  0  0  0  0  0  0  0  0
   -5.2160   -0.9579   -0.2666 C   0  0  0  0  0  0  0  0  0  0  0  0
   -6.0492    0.1899   -0.2012 C   0  0  0  0  0  0  0  0  0  0  0  0
   -5.5676    1.4286   -0.7039 C   0  0  0  0  0  0  0  0  0  0  0  0
   -4.3129    1.5277   -1.2415 C   0  0  0  0  0  0  0  0  0  0  0  0
   -7.3487    0.0707    0.3601 C   0  0  0  0  0  0  0  0  0  0  0  0
   -7.7783   -1.1397    0.8266 C   0  0  0  0  0  0  0  0  0  0  0  0
   -6.9585   -2.2942    0.7652 C   0  0  0  0  0  0  0  0  0  0  0  0
   -5.7061   -2.1980    0.2278 C   0  0  0  0  0  0  0  0  0  0  0  0
   -9.3659   -1.2908    1.5155 Cl  0  0  0  0  0  0  0  0  0  0  0  0
    8.5606   -3.8512   -0.1441 H   0  0  0  0  0  0  0  0  0  0  0  0
    6.4199   -2.8865    0.4993 H   0  0  0  0  0  0  0  0  0  0  0  0
    8.0558    0.9732   -0.5893 H   0  0  0  0  0  0  0  0  0  0  0  0
   10.1025   -0.2001   -1.2212 H   0  0  0  0  0  0  0  0  0  0  0  0
    5.8916    1.2003   -1.1488 H   0  0  0  0  0  0  0  0  0  0  0  0
    6.1482    1.8870    0.4609 H   0  0  0  0  0  0  0  0  0  0  0  0
    3.5146    0.8361   -0.6797 H   0  0  0  0  0  0  0  0  0  0  0  0
    3.9398    2.5105   -0.3443 H   0  0  0  0  0  0  0  0  0  0  0  0
    4.1856    2.1001    2.0147 H   0  0  0  0  0  0  0  0  0  0  0  0
    3.0963   -0.5892    2.3695 H   0  0  0  0  0  0  0  0  0  0  0  0
    4.6062    0.1005    2.9248 H   0  0  0  0  0  0  0  0  0  0  0  0
    4.0852   -1.3810    0.3050 H   0  0  0  0  0  0  0  0  0  0  0  0
    5.1892   -1.7589    1.6199 H   0  0  0  0  0  0  0  0  0  0  0  0
   -0.1615    2.4702    2.0375 H   0  0  0  0  0  0  0  0  0  0  0  0
   -0.7906    0.7997    2.0703 H   0  0  0  0  0  0  0  0  0  0  0  0
   -1.9737    2.0301    0.3244 H   0  0  0  0  0  0  0  0  0  0  0  0
   -0.4455    2.5708   -0.4116 H   0  0  0  0  0  0  0  0  0  0  0  0
    1.0454    0.7694   -1.4616 H   0  0  0  0  0  0  0  0  0  0  0  0
    0.4307   -0.9043   -1.4180 H   0  0  0  0  0  0  0  0  0  0  0  0
    0.6585   -0.9774    1.0247 H   0  0  0  0  0  0  0  0  0  0  0  0
    2.1978   -0.4859    0.3067 H   0  0  0  0  0  0  0  0  0  0  0  0
   -3.2736   -1.7091   -0.8927 H   0  0  0  0  0  0  0  0  0  0  0  0
   -6.2165    2.3001   -0.6636 H   0  0  0  0  0  0  0  0  0  0  0  0
   -3.9390    2.4618   -1.6497 H   0  0  0  0  0  0  0  0  0  0  0  0
   -7.9950    0.9422    0.4143 H   0  0  0  0  0  0  0  0  0  0  0  0
   -7.3387   -3.2370    1.1454 H   0  0  0  0  0  0  0  0  0  0  0  0
   -5.0669   -3.0759    0.1726 H   0  0  0  0  0  0  0  0  0  0  0  0
  1  2  1  0  0  0  0
  2 35  1  0  0  0  0
  2  3  2  0  0  0  0
  3 36  1  0  0  0  0
  4  3  1  0  0  0  0
  4  7  1  0  0  0  0
  5  4  2  0  0  0  0
  6  1  2  0  0  0  0
  6  5  1  0  0  0  0
  7 12  1  0  0  0  0
  8  9  1  0  0  0  0
  8  7  1  0  0  0  0
  8 40  1  0  0  0  0
  9 10  1  0  0  0  0
 10 13  1  0  0  0  0
 10 43  1  0  0  0  0
 10 11  1  0  0  0  0
 11 44  1  0  0  0  0
 11 45  1  0  0  0  0
 12 47  1  0  0  0  0
 12 11  1  0  0  0  0
 13 14  2  0  0  0  0
 15 16  1  0  0  0  0
 15 13  1  0  0  0  0
 16 48  1  0  0  0  0
 16 49  1  0  0  0  0
 17 50  1  0  0  0  0
 17 16  1  0  0  0  0
 18 17  1  0  0  0  0
 19 18  1  0  0  0  0
 19 20  1  0  0  0  0
 20 54  1  0  0  0  0
 20 15  1  0  0  0  0
 21 24  1  0  0  0  0
 21 18  1  0  0  0  0
 22 21  2  0  0  0  0
 23 21  2  0  0  0  0
 24 29  2  0  0  0  0
 24 25  1  0  0  0  0
 25 26  2  0  0  0  0
 26 27  1  0  0  0  0
 26 33  1  0  0  0  0
 27 30  1  0  0  0  0
 28 57  1  0  0  0  0
 28 27  2  0  0  0  0
 29 28  1  0  0  0  0
 30 59  1  0  0  0  0
 30 31  2  0  0  0  0
 31 34  1  0  0  0  0
 32 31  1  0  0  0  0
 32 60  1  0  0  0  0
 33 32  2  0  0  0  0
 37  5  1  0  0  0  0
 38  6  1  0  0  0  0
 39  8  1  0  0  0  0
 41  9  1  0  0  0  0
 42  9  1  0  0  0  0
 46 12  1  0  0  0  0
 51 17  1  0  0  0  0
 52 19  1  0  0  0  0
 53 19  1  0  0  0  0
 55 20  1  0  0  0  0
 56 25  1  0  0  0  0
 58 29  1  0  0  0  0
 61 33  1  0  0  0  0
M  END
