omegapdb_1z1r_30.log
 OpenBabel09261812563D

 66 68  0  0  1  0  0  0  0  0999 V2000
    0.2218   -2.1304    0.1742 C   0  0  2  0  0  0  0  0  0  0  0  0
   -0.7915   -2.9807   -0.6239 C   0  0  0  0  0  0  0  0  0  0  0  0
   -2.0781   -2.2813   -0.9791 C   0  0  0  0  0  0  0  0  0  0  0  0
   -3.2079   -2.3818   -0.1637 C   0  0  0  0  0  0  0  0  0  0  0  0
   -4.3534   -1.6387   -0.4249 C   0  0  0  0  0  0  0  0  0  0  0  0
   -4.3903   -0.7812   -1.5225 C   0  0  0  0  0  0  0  0  0  0  0  0
   -3.2996   -0.7292   -2.3939 C   0  0  0  0  0  0  0  0  0  0  0  0
   -2.1569   -1.4671   -2.1119 C   0  0  0  0  0  0  0  0  0  0  0  0
   -5.5301   -0.0507   -1.7085 O   0  0  0  0  0  0  0  0  0  0  0  0
   -5.3900    1.3276   -2.0390 C   0  0  0  0  0  0  0  0  0  0  0  0
   -5.1805    2.2241   -0.8230 C   0  0  0  0  0  0  0  0  0  0  0  0
   -3.9082    1.9496   -0.0117 C   0  0  0  0  0  0  0  0  0  0  0  0
   -4.1706    1.0604    1.2013 C   0  0  0  0  0  0  0  0  0  0  0  0
   -5.2877    0.9436    1.6799 O   0  0  0  0  0  0  0  0  0  0  0  0
   -3.0972    0.4838    1.8250 N   0  0  0  0  0  0  0  0  0  0  0  0
   -1.7630    0.2165    1.3339 C   0  0  2  0  0  0  0  0  0  0  0  0
   -1.2921   -1.0774    2.0257 C   0  0  0  0  0  0  0  0  0  0  0  0
   -1.7721   -1.3702    3.1115 O   0  0  0  0  0  0  0  0  0  0  0  0
   -0.2340   -1.8007    1.5334 N   0  0  0  0  0  0  0  0  0  0  0  0
   -0.7722    1.3401    1.7232 C   0  0  0  0  0  0  0  0  0  0  0  0
   -0.6966    2.4300    0.6687 C   0  0  0  0  0  0  0  0  0  0  0  0
   -0.4777    2.1689   -0.5078 O   0  0  0  0  0  0  0  0  0  0  0  0
   -0.8580    3.7016    1.1094 N   0  0  0  0  0  0  0  0  0  0  0  0
    0.7713   -0.9052   -0.5745 C   0  0  2  0  0  0  0  0  0  0  0  0
    1.0991   -1.3309   -1.8981 O   0  0  0  0  0  0  0  0  0  0  0  0
    2.0381   -0.3537    0.0875 C   0  0  0  0  0  0  0  0  0  0  0  0
    3.1040   -1.3335   -0.0711 N   0  0  0  0  0  0  0  0  0  0  0  0
    4.5728   -1.0608    0.6394 S   0  0  0  0  0  0  0  0  0  0  0  0
    4.3021   -0.7024    2.0210 O   0  0  0  0  0  0  0  0  0  0  0  0
    5.4051   -2.1908    0.2699 O   0  0  0  0  0  0  0  0  0  0  0  0
    5.2472    0.3844   -0.1561 C   0  0  0  0  0  0  0  0  0  0  0  0
    5.0142    1.6413    0.3945 C   0  0  0  0  0  0  0  0  0  0  0  0
    5.5107    2.7672   -0.2555 C   0  0  0  0  0  0  0  0  0  0  0  0
    6.2308    2.6286   -1.4385 C   0  0  0  0  0  0  0  0  0  0  0  0
    6.4659    1.3643   -1.9753 C   0  0  0  0  0  0  0  0  0  0  0  0
    5.9749    0.2330   -1.3340 C   0  0  0  0  0  0  0  0  0  0  0  0
    1.0912   -2.7759    0.3439 H   0  0  0  0  0  0  0  0  0  0  0  0
   -1.0078   -3.8706   -0.0203 H   0  0  0  0  0  0  0  0  0  0  0  0
   -0.2824   -3.3225   -1.5299 H   0  0  0  0  0  0  0  0  0  0  0  0
   -3.1826   -3.0262    0.7139 H   0  0  0  0  0  0  0  0  0  0  0  0
   -5.2128   -1.6664    0.2387 H   0  0  0  0  0  0  0  0  0  0  0  0
   -3.3356   -0.1125   -3.2872 H   0  0  0  0  0  0  0  0  0  0  0  0
   -1.3006   -1.4081   -2.7797 H   0  0  0  0  0  0  0  0  0  0  0  0
   -4.5788    1.4709   -2.7642 H   0  0  0  0  0  0  0  0  0  0  0  0
   -6.3266    1.5974   -2.5355 H   0  0  0  0  0  0  0  0  0  0  0  0
   -6.0376    2.1310   -0.1493 H   0  0  0  0  0  0  0  0  0  0  0  0
   -5.1634    3.2557   -1.1968 H   0  0  0  0  0  0  0  0  0  0  0  0
   -3.1007    1.5554   -0.6383 H   0  0  0  0  0  0  0  0  0  0  0  0
   -3.5266    2.8936    0.4015 H   0  0  0  0  0  0  0  0  0  0  0  0
   -3.3389   -0.0600    2.6475 H   0  0  0  0  0  0  0  0  0  0  0  0
   -1.7698    0.0928    0.2488 H   0  0  0  0  0  0  0  0  0  0  0  0
   -0.0102   -2.5236    2.2071 H   0  0  0  0  0  0  0  0  0  0  0  0
   -1.0568    1.7226    2.7081 H   0  0  0  0  0  0  0  0  0  0  0  0
    0.2426    0.9374    1.8126 H   0  0  0  0  0  0  0  0  0  0  0  0
   -0.7974    4.4539    0.4397 H   0  0  0  0  0  0  0  0  0  0  0  0
   -1.0748    3.9177    2.0685 H   0  0  0  0  0  0  0  0  0  0  0  0
    0.0357   -0.0969   -0.6251 H   0  0  0  0  0  0  0  0  0  0  0  0
    1.1047   -0.5440   -2.4583 H   0  0  0  0  0  0  0  0  0  0  0  0
    2.2877    0.6162   -0.3729 H   0  0  0  0  0  0  0  0  0  0  0  0
    1.8829   -0.2005    1.1587 H   0  0  0  0  0  0  0  0  0  0  0  0
    3.1880   -1.6875   -1.0204 H   0  0  0  0  0  0  0  0  0  0  0  0
    4.4741    1.7234    1.3333 H   0  0  0  0  0  0  0  0  0  0  0  0
    5.3426    3.7531    0.1691 H   0  0  0  0  0  0  0  0  0  0  0  0
    6.6207    3.5101   -1.9408 H   0  0  0  0  0  0  0  0  0  0  0  0
    7.0409    1.2589   -2.8911 H   0  0  0  0  0  0  0  0  0  0  0  0
    6.1699   -0.7627   -1.7227 H   0  0  0  0  0  0  0  0  0  0  0  0
  1 37  1  1  0  0  0
  1 19  1  0  0  0  0
  2 38  1  0  0  0  0
  2  1  1  0  0  0  0
  3  2  1  0  0  0  0
  3  4  2  0  0  0  0
  4 40  1  0  0  0  0
  5  4  1  0  0  0  0
  5 41  1  0  0  0  0
  6  5  2  0  0  0  0
  7  8  2  0  0  0  0
  7  6  1  0  0  0  0
  8  3  1  0  0  0  0
  9  6  1  0  0  0  0
 10  9  1  0  0  0  0
 10 11  1  0  0  0  0
 11 46  1  0  0  0  0
 11 12  1  0  0  0  0
 12 49  1  0  0  0  0
 12 13  1  0  0  0  0
 13 14  2  0  0  0  0
 13 15  1  0  0  0  0
 15 50  1  0  0  0  0
 16 51  1  6  0  0  0
 16 20  1  0  0  0  0
 16 15  1  0  0  0  0
 16 17  1  0  0  0  0
 17 18  2  0  0  0  0
 19 17  1  0  0  0  0
 19 52  1  0  0  0  0
 20 54  1  0  0  0  0
 20 53  1  0  0  0  0
 21 23  1  0  0  0  0
 21 20  1  0  0  0  0
 22 21  2  0  0  0  0
 23 56  1  0  0  0  0
 24 57  1  6  0  0  0
 24 26  1  0  0  0  0
 24  1  1  0  0  0  0
 25 24  1  0  0  0  0
 26 60  1  0  0  0  0
 27 26  1  0  0  0  0
 27 28  1  0  0  0  0
 28 29  2  0  0  0  0
 30 28  2  0  0  0  0
 31 32  1  0  0  0  0
 31 28  1  0  0  0  0
 32 62  1  0  0  0  0
 33 63  1  0  0  0  0
 33 32  2  0  0  0  0
 34 33  1  0  0  0  0
 35 34  2  0  0  0  0
 35 36  1  0  0  0  0
 36 31  2  0  0  0  0
 39  2  1  0  0  0  0
 42  7  1  0  0  0  0
 43  8  1  0  0  0  0
 44 10  1  0  0  0  0
 45 10  1  0  0  0  0
 47 11  1  0  0  0  0
 48 12  1  0  0  0  0
 55 23  1  0  0  0  0
 58 25  1  0  0  0  0
 59 26  1  0  0  0  0
 61 27  1  0  0  0  0
 64 34  1  0  0  0  0
 65 35  1  0  0  0  0
 66 36  1  0  0  0  0
M  END
