omegapdb_1xom_18.log
 OpenBabel09261812563D

 50 52  0  0  1  0  0  0  0  0999 V2000
   -5.8008   -2.4762    0.5718 O   0  0  0  0  0  0  0  0  0  0  0  0
   -5.5141   -1.3758   -0.1648 C   0  0  0  0  0  0  0  0  0  0  0  0
   -6.3981   -0.7665   -0.7030 O   0  0  0  0  0  0  0  0  0  0  0  0
   -4.0386   -1.0005   -0.2352 C   0  0  1  0  0  0  0  0  0  0  0  0
   -3.8240    0.1682   -1.1970 C   0  0  0  0  0  0  0  0  0  0  0  0
   -2.3498    0.5623   -1.2776 C   0  0  0  0  0  0  0  0  0  0  0  0
   -1.7408    0.8988    0.1080 C   0  0  2  0  0  0  0  0  0  0  0  0
   -2.0017   -0.2775    1.0832 C   0  0  0  0  0  0  0  0  0  0  0  0
   -3.4787   -0.6658    1.1598 C   0  0  0  0  0  0  0  0  0  0  0  0
   -2.4531    2.0796    0.6400 C   0  0  0  0  0  0  0  0  0  0  0  0
   -3.0383    2.9843    1.0620 N   0  0  0  0  0  0  0  0  0  0  0  0
   -0.2430    1.1979   -0.0023 C   0  0  0  0  0  0  0  0  0  0  0  0
    0.3062    2.4274    0.3361 C   0  0  0  0  0  0  0  0  0  0  0  0
    1.6762    2.6669    0.2112 C   0  0  0  0  0  0  0  0  0  0  0  0
    2.5294    1.6713   -0.2519 C   0  0  0  0  0  0  0  0  0  0  0  0
    3.8696    1.8028   -0.4042 O   0  0  0  0  0  0  0  0  0  0  0  0
    4.4438    3.0472   -0.0638 C   0  0  0  0  0  0  0  0  0  0  0  0
    1.9829    0.4197   -0.5979 C   0  0  0  0  0  0  0  0  0  0  0  0
    0.6223    0.2018   -0.4739 C   0  0  0  0  0  0  0  0  0  0  0  0
    2.7945   -0.5593   -1.1057 O   0  0  0  0  0  0  0  0  0  0  0  0
    3.2165   -1.5480   -0.1690 C   0  0  0  0  0  0  0  0  0  0  0  0
    3.8755   -2.7044   -0.9249 C   0  0  0  0  0  0  0  0  0  0  0  0
    4.8767   -3.3330    0.0737 C   0  0  0  0  0  0  0  0  0  0  0  0
    4.8522   -2.4212    1.3245 C   0  0  0  0  0  0  0  0  0  0  0  0
    4.2909   -1.0909    0.8177 C   0  0  0  0  0  0  0  0  0  0  0  0
   -4.9867   -2.8643    0.9207 H   0  0  0  0  0  0  0  0  0  0  0  0
   -3.4968   -1.8816   -0.6183 H   0  0  0  0  0  0  0  0  0  0  0  0
   -4.1953   -0.0969   -2.1918 H   0  0  0  0  0  0  0  0  0  0  0  0
   -4.4308    1.0175   -0.8612 H   0  0  0  0  0  0  0  0  0  0  0  0
   -1.7661   -0.2640   -1.7030 H   0  0  0  0  0  0  0  0  0  0  0  0
   -2.2163    1.4195   -1.9460 H   0  0  0  0  0  0  0  0  0  0  0  0
   -1.4150   -1.1359    0.7325 H   0  0  0  0  0  0  0  0  0  0  0  0
   -1.6214   -0.0150    2.0764 H   0  0  0  0  0  0  0  0  0  0  0  0
   -3.5852   -1.5133    1.8492 H   0  0  0  0  0  0  0  0  0  0  0  0
   -4.0605    0.1596    1.5907 H   0  0  0  0  0  0  0  0  0  0  0  0
   -0.3308    3.2282    0.7018 H   0  0  0  0  0  0  0  0  0  0  0  0
    2.0632    3.6433    0.4829 H   0  0  0  0  0  0  0  0  0  0  0  0
    5.5137    2.9448   -0.2506 H   0  0  0  0  0  0  0  0  0  0  0  0
    4.2805    3.2881    0.9946 H   0  0  0  0  0  0  0  0  0  0  0  0
    4.0422    3.8572   -0.6859 H   0  0  0  0  0  0  0  0  0  0  0  0
    0.2519   -0.7758   -0.7755 H   0  0  0  0  0  0  0  0  0  0  0  0
    2.3351   -1.9034    0.3895 H   0  0  0  0  0  0  0  0  0  0  0  0
    3.1400   -3.4179   -1.3085 H   0  0  0  0  0  0  0  0  0  0  0  0
    4.3938   -2.2757   -1.7893 H   0  0  0  0  0  0  0  0  0  0  0  0
    5.8805   -3.3629   -0.3623 H   0  0  0  0  0  0  0  0  0  0  0  0
    4.6141   -4.3652    0.3258 H   0  0  0  0  0  0  0  0  0  0  0  0
    5.8360   -2.3170    1.7920 H   0  0  0  0  0  0  0  0  0  0  0  0
    4.1796   -2.8403    2.0837 H   0  0  0  0  0  0  0  0  0  0  0  0
    3.9027   -0.4440    1.6117 H   0  0  0  0  0  0  0  0  0  0  0  0
    5.0466   -0.5252    0.2604 H   0  0  0  0  0  0  0  0  0  0  0  0
  1 26  1  0  0  0  0
  2  1  1  0  0  0  0
  3  2  2  0  0  0  0
  4 27  1  6  0  0  0
  4  2  1  0  0  0  0
  4  9  1  0  0  0  0
  5 29  1  0  0  0  0
  5  4  1  0  0  0  0
  6  5  1  0  0  0  0
  6  7  1  0  0  0  0
  7 10  1  1  0  0  0
  7  8  1  0  0  0  0
  8  9  1  0  0  0  0
  8 33  1  0  0  0  0
  9 35  1  0  0  0  0
  9 34  1  0  0  0  0
 10 11  3  0  0  0  0
 12  7  1  0  0  0  0
 12 13  2  0  0  0  0
 13 36  1  0  0  0  0
 14 13  1  0  0  0  0
 14 37  1  0  0  0  0
 15 14  2  0  0  0  0
 16 15  1  0  0  0  0
 16 17  1  0  0  0  0
 17 39  1  0  0  0  0
 18 19  2  0  0  0  0
 18 15  1  0  0  0  0
 19 12  1  0  0  0  0
 20 18  1  0  0  0  0
 20 21  1  0  0  0  0
 21 42  1  0  0  0  0
 21 25  1  0  0  0  0
 22 21  1  0  0  0  0
 22 23  1  0  0  0  0
 23 46  1  0  0  0  0
 23 24  1  0  0  0  0
 24 47  1  0  0  0  0
 24 48  1  0  0  0  0
 25 24  1  0  0  0  0
 25 49  1  0  0  0  0
 28  5  1  0  0  0  0
 30  6  1  0  0  0  0
 31  6  1  0  0  0  0
 32  8  1  0  0  0  0
 38 17  1  0  0  0  0
 40 17  1  0  0  0  0
 41 19  1  0  0  0  0
 43 22  1  0  0  0  0
 44 22  1  0  0  0  0
 45 23  1  0  0  0  0
 50 25  1  0  0  0  0
M  END
