omegapdb_1xom_11.log
 OpenBabel09261812563D

 50 52  0  0  1  0  0  0  0  0999 V2000
   -6.4695   -0.7961   -0.9260 O   0  0  0  0  0  0  0  0  0  0  0  0
   -5.7119   -0.1353   -0.0272 C   0  0  0  0  0  0  0  0  0  0  0  0
   -6.0379   -0.0226    1.1309 O   0  0  0  0  0  0  0  0  0  0  0  0
   -4.4422    0.3964   -0.6567 C   0  0  1  0  0  0  0  0  0  0  0  0
   -3.6280    1.2287    0.3473 C   0  0  0  0  0  0  0  0  0  0  0  0
   -2.6567    0.3459    1.1301 C   0  0  0  0  0  0  0  0  0  0  0  0
   -1.5745   -0.2972    0.2092 C   0  0  2  0  0  0  0  0  0  0  0  0
   -2.1318   -0.4320   -1.2408 C   0  0  0  0  0  0  0  0  0  0  0  0
   -3.6161   -0.7838   -1.2325 C   0  0  0  0  0  0  0  0  0  0  0  0
   -1.3185   -1.6619    0.7171 C   0  0  0  0  0  0  0  0  0  0  0  0
   -1.1431   -2.7421    1.0942 N   0  0  0  0  0  0  0  0  0  0  0  0
   -0.2493    0.4714    0.1633 C   0  0  0  0  0  0  0  0  0  0  0  0
   -0.1692    1.8289    0.4442 C   0  0  0  0  0  0  0  0  0  0  0  0
    1.0386    2.5201    0.3205 C   0  0  0  0  0  0  0  0  0  0  0  0
    2.1915    1.8609   -0.0892 C   0  0  0  0  0  0  0  0  0  0  0  0
    3.4066    2.4467   -0.2517 O   0  0  0  0  0  0  0  0  0  0  0  0
    3.5049    3.8301    0.0114 C   0  0  0  0  0  0  0  0  0  0  0  0
    2.1249    0.4805   -0.3688 C   0  0  0  0  0  0  0  0  0  0  0  0
    0.9178   -0.1853   -0.2452 C   0  0  0  0  0  0  0  0  0  0  0  0
    3.2186   -0.2009   -0.8173 O   0  0  0  0  0  0  0  0  0  0  0  0
    4.2741   -0.4183    0.1405 C   0  0  0  0  0  0  0  0  0  0  0  0
    5.3599   -1.1792   -0.6079 C   0  0  0  0  0  0  0  0  0  0  0  0
    4.8224   -2.6204   -0.6909 C   0  0  0  0  0  0  0  0  0  0  0  0
    3.8690   -2.7823    0.5231 C   0  0  0  0  0  0  0  0  0  0  0  0
    3.8392   -1.4072    1.2206 C   0  0  0  0  0  0  0  0  0  0  0  0
   -7.2426   -1.1248   -0.4379 H   0  0  0  0  0  0  0  0  0  0  0  0
   -4.7550    1.0354   -1.4922 H   0  0  0  0  0  0  0  0  0  0  0  0
   -3.0827    2.0122   -0.1918 H   0  0  0  0  0  0  0  0  0  0  0  0
   -4.3089    1.7263    1.0434 H   0  0  0  0  0  0  0  0  0  0  0  0
   -2.1686    0.9016    1.9362 H   0  0  0  0  0  0  0  0  0  0  0  0
   -3.2382   -0.4450    1.6162 H   0  0  0  0  0  0  0  0  0  0  0  0
   -1.5495   -1.1822   -1.7856 H   0  0  0  0  0  0  0  0  0  0  0  0
   -1.9726    0.5236   -1.7539 H   0  0  0  0  0  0  0  0  0  0  0  0
   -3.7637   -1.6886   -0.6279 H   0  0  0  0  0  0  0  0  0  0  0  0
   -3.9666   -1.0284   -2.2391 H   0  0  0  0  0  0  0  0  0  0  0  0
   -1.0458    2.3835    0.7667 H   0  0  0  0  0  0  0  0  0  0  0  0
    1.0607    3.5814    0.5451 H   0  0  0  0  0  0  0  0  0  0  0  0
    3.2595    4.0586    1.0567 H   0  0  0  0  0  0  0  0  0  0  0  0
    2.8495    4.4112   -0.6499 H   0  0  0  0  0  0  0  0  0  0  0  0
    4.5440    4.0996   -0.1831 H   0  0  0  0  0  0  0  0  0  0  0  0
    0.9133   -1.2507   -0.4656 H   0  0  0  0  0  0  0  0  0  0  0  0
    4.6056    0.5485    0.5337 H   0  0  0  0  0  0  0  0  0  0  0  0
    6.2835   -1.1395   -0.0174 H   0  0  0  0  0  0  0  0  0  0  0  0
    5.5635   -0.7309   -1.5846 H   0  0  0  0  0  0  0  0  0  0  0  0
    4.2713   -2.7567   -1.6261 H   0  0  0  0  0  0  0  0  0  0  0  0
    5.6324   -3.3565   -0.6843 H   0  0  0  0  0  0  0  0  0  0  0  0
    2.8652   -3.0637    0.1890 H   0  0  0  0  0  0  0  0  0  0  0  0
    4.2028   -3.5673    1.2088 H   0  0  0  0  0  0  0  0  0  0  0  0
    4.5730   -1.3673    2.0353 H   0  0  0  0  0  0  0  0  0  0  0  0
    2.8630   -1.1611    1.6511 H   0  0  0  0  0  0  0  0  0  0  0  0
  1 26  1  0  0  0  0
  1  2  1  0  0  0  0
  2  3  2  0  0  0  0
  4 27  1  6  0  0  0
  4  2  1  0  0  0  0
  4  5  1  0  0  0  0
  5 29  1  0  0  0  0
  5  6  1  0  0  0  0
  6 31  1  0  0  0  0
  6 30  1  0  0  0  0
  7 10  1  1  0  0  0
  7  6  1  0  0  0  0
  8  9  1  0  0  0  0
  8  7  1  0  0  0  0
  9  4  1  0  0  0  0
  9 34  1  0  0  0  0
 10 11  3  0  0  0  0
 12  7  1  0  0  0  0
 12 13  2  0  0  0  0
 13 36  1  0  0  0  0
 14 13  1  0  0  0  0
 14 37  1  0  0  0  0
 15 14  2  0  0  0  0
 16 15  1  0  0  0  0
 16 17  1  0  0  0  0
 17 38  1  0  0  0  0
 18 19  2  0  0  0  0
 18 15  1  0  0  0  0
 19 12  1  0  0  0  0
 20 18  1  0  0  0  0
 20 21  1  0  0  0  0
 21 42  1  0  0  0  0
 21 25  1  0  0  0  0
 22 43  1  0  0  0  0
 22 21  1  0  0  0  0
 23 46  1  0  0  0  0
 23 22  1  0  0  0  0
 23 24  1  0  0  0  0
 24 48  1  0  0  0  0
 24 25  1  0  0  0  0
 25 50  1  0  0  0  0
 25 49  1  0  0  0  0
 28  5  1  0  0  0  0
 32  8  1  0  0  0  0
 33  8  1  0  0  0  0
 35  9  1  0  0  0  0
 39 17  1  0  0  0  0
 40 17  1  0  0  0  0
 41 19  1  0  0  0  0
 44 22  1  0  0  0  0
 45 23  1  0  0  0  0
 47 24  1  0  0  0  0
M  END
