omegapdb_1gs5_13.log
 OpenBabel09261812563D

 24 23  0  0  1  0  0  0  0  0999 V2000
   -0.5413    0.2900    0.7761 C   0  0  2  0  0  0  0  0  0  0  0  0
   -1.0279    1.5829    0.1107 C   0  0  0  0  0  0  0  0  0  0  0  0
   -2.1637    1.9835    0.1673 O   0  0  0  0  0  0  0  0  0  0  0  0
   -0.0430    2.2683   -0.4934 O   0  0  0  0  0  0  0  0  0  0  0  0
    0.7005   -0.3473    0.1325 C   0  0  0  0  0  0  0  0  0  0  0  0
    2.0087    0.3240    0.5621 C   0  0  0  0  0  0  0  0  0  0  0  0
    3.2307   -0.3359   -0.0281 C   0  0  0  0  0  0  0  0  0  0  0  0
    4.1499    0.2328   -0.5645 O   0  0  0  0  0  0  0  0  0  0  0  0
    3.2098   -1.6780    0.1270 O   0  0  0  0  0  0  0  0  0  0  0  0
   -1.6543   -0.6365    0.8757 N   0  0  0  0  0  0  0  0  0  0  0  0
   -2.3110   -1.0076   -0.2737 C   0  0  0  0  0  0  0  0  0  0  0  0
   -1.8429   -0.7872   -1.3769 O   0  0  0  0  0  0  0  0  0  0  0  0
   -3.6426   -1.6930   -0.0651 C   0  0  0  0  0  0  0  0  0  0  0  0
   -0.2857    0.5713    1.8073 H   0  0  0  0  0  0  0  0  0  0  0  0
   -0.4562    3.0671   -0.8618 H   0  0  0  0  0  0  0  0  0  0  0  0
    0.7193   -1.3972    0.4382 H   0  0  0  0  0  0  0  0  0  0  0  0
    0.5925   -0.3310   -0.9546 H   0  0  0  0  0  0  0  0  0  0  0  0
    2.1118    0.2701    1.6552 H   0  0  0  0  0  0  0  0  0  0  0  0
    2.0403    1.3747    0.2704 H   0  0  0  0  0  0  0  0  0  0  0  0
    4.0313   -2.0039   -0.2763 H   0  0  0  0  0  0  0  0  0  0  0  0
   -2.2138   -0.5776    1.7137 H   0  0  0  0  0  0  0  0  0  0  0  0
   -4.4297   -0.9313   -0.0513 H   0  0  0  0  0  0  0  0  0  0  0  0
   -3.8301   -2.3637   -0.9049 H   0  0  0  0  0  0  0  0  0  0  0  0
   -3.6830   -2.2546    0.8729 H   0  0  0  0  0  0  0  0  0  0  0  0
  1 10  1  0  0  0  0
  1 14  1  1  0  0  0
  2  3  2  0  0  0  0
  2  1  1  0  0  0  0
  4  2  1  0  0  0  0
  5 16  1  0  0  0  0
  5  6  1  0  0  0  0
  5  1  1  0  0  0  0
  6 18  1  0  0  0  0
  7  9  1  0  0  0  0
  7  6  1  0  0  0  0
  8  7  2  0  0  0  0
 10 21  1  0  0  0  0
 11 13  1  0  0  0  0
 11 10  1  0  0  0  0
 12 11  2  0  0  0  0
 13 22  1  0  0  0  0
 13 24  1  0  0  0  0
 15  4  1  0  0  0  0
 17  5  1  0  0  0  0
 19  6  1  0  0  0  0
 20  9  1  0  0  0  0
 23 13  1  0  0  0  0
M  END
