omegapdb_1xom_20.log
 OpenBabel09261812563D

 50 52  0  0  1  0  0  0  0  0999 V2000
    6.4813   -0.9207   -0.7344 O   0  0  0  0  0  0  0  0  0  0  0  0
    5.7075   -0.1395    0.0537 C   0  0  0  0  0  0  0  0  0  0  0  0
    6.0266    0.0629    1.1949 O   0  0  0  0  0  0  0  0  0  0  0  0
    4.4569    0.4233   -0.6171 C   0  0  1  0  0  0  0  0  0  0  0  0
    3.6271   -0.7184   -1.2649 C   0  0  0  0  0  0  0  0  0  0  0  0
    2.1436   -0.3602   -1.2774 C   0  0  0  0  0  0  0  0  0  0  0  0
    1.5684   -0.2832    0.1686 C   0  0  2  0  0  0  0  0  0  0  0  0
    2.6324    0.3387    1.1251 C   0  0  0  0  0  0  0  0  0  0  0  0
    3.6195    1.2373    0.3816 C   0  0  0  0  0  0  0  0  0  0  0  0
    1.3199   -1.6691    0.6194 C   0  0  0  0  0  0  0  0  0  0  0  0
    1.1505   -2.7665    0.9461 N   0  0  0  0  0  0  0  0  0  0  0  0
    0.2367    0.4742    0.1302 C   0  0  0  0  0  0  0  0  0  0  0  0
    0.1467    1.8278    0.4280 C   0  0  0  0  0  0  0  0  0  0  0  0
   -1.0662    2.5103    0.3108 C   0  0  0  0  0  0  0  0  0  0  0  0
   -2.2143    1.8479   -0.1094 C   0  0  0  0  0  0  0  0  0  0  0  0
   -3.4317    2.4294   -0.2691 O   0  0  0  0  0  0  0  0  0  0  0  0
   -3.5402    3.8083    0.0143 C   0  0  0  0  0  0  0  0  0  0  0  0
   -2.1375    0.4714   -0.4042 C   0  0  0  0  0  0  0  0  0  0  0  0
   -0.9246   -0.1858   -0.2873 C   0  0  0  0  0  0  0  0  0  0  0  0
   -3.2179   -0.2230   -0.8622 O   0  0  0  0  0  0  0  0  0  0  0  0
   -4.3099   -0.4216    0.0592 C   0  0  0  0  0  0  0  0  0  0  0  0
   -5.2858   -1.3419   -0.6608 C   0  0  0  0  0  0  0  0  0  0  0  0
   -4.6356   -2.7341   -0.5588 C   0  0  0  0  0  0  0  0  0  0  0  0
   -3.7662   -2.6959    0.7262 C   0  0  0  0  0  0  0  0  0  0  0  0
   -3.8762   -1.2544    1.2645 C   0  0  0  0  0  0  0  0  0  0  0  0
    6.0913   -0.9955   -1.6165 H   0  0  0  0  0  0  0  0  0  0  0  0
    4.8064    1.0962   -1.4134 H   0  0  0  0  0  0  0  0  0  0  0  0
    3.9632   -0.9129   -2.2912 H   0  0  0  0  0  0  0  0  0  0  0  0
    3.7607   -1.6568   -0.7098 H   0  0  0  0  0  0  0  0  0  0  0  0
    1.9959    0.6156   -1.7539 H   0  0  0  0  0  0  0  0  0  0  0  0
    1.5671   -1.0860   -1.8598 H   0  0  0  0  0  0  0  0  0  0  0  0
    2.1282    0.8787    1.9318 H   0  0  0  0  0  0  0  0  0  0  0  0
    3.2036   -0.4622    1.6074 H   0  0  0  0  0  0  0  0  0  0  0  0
    4.2913    1.7146    1.0995 H   0  0  0  0  0  0  0  0  0  0  0  0
    3.0879    2.0334   -0.1526 H   0  0  0  0  0  0  0  0  0  0  0  0
    1.0187    2.3848    0.7592 H   0  0  0  0  0  0  0  0  0  0  0  0
   -1.0970    3.5685    0.5484 H   0  0  0  0  0  0  0  0  0  0  0  0
   -2.8874    4.4035   -0.6368 H   0  0  0  0  0  0  0  0  0  0  0  0
   -4.5807    4.0733   -0.1787 H   0  0  0  0  0  0  0  0  0  0  0  0
   -3.2989    4.0227    1.0635 H   0  0  0  0  0  0  0  0  0  0  0  0
   -0.9131   -1.2484   -0.5197 H   0  0  0  0  0  0  0  0  0  0  0  0
   -4.7339    0.5515    0.3263 H   0  0  0  0  0  0  0  0  0  0  0  0
   -5.4631   -1.0166   -1.6901 H   0  0  0  0  0  0  0  0  0  0  0  0
   -6.2443   -1.3179   -0.1278 H   0  0  0  0  0  0  0  0  0  0  0  0
   -4.0068   -2.9137   -1.4360 H   0  0  0  0  0  0  0  0  0  0  0  0
   -5.3852   -3.5310   -0.5308 H   0  0  0  0  0  0  0  0  0  0  0  0
   -4.1019   -3.4232    1.4719 H   0  0  0  0  0  0  0  0  0  0  0  0
   -2.7241   -2.9417    0.4967 H   0  0  0  0  0  0  0  0  0  0  0  0
   -2.9490   -0.8897    1.7184 H   0  0  0  0  0  0  0  0  0  0  0  0
   -4.6611   -1.1814    2.0275 H   0  0  0  0  0  0  0  0  0  0  0  0
  1  2  1  0  0  0  0
  2  3  2  0  0  0  0
  4 27  1  6  0  0  0
  4  2  1  0  0  0  0
  4  9  1  0  0  0  0
  5 29  1  0  0  0  0
  5  4  1  0  0  0  0
  6  5  1  0  0  0  0
  6  7  1  0  0  0  0
  7 10  1  1  0  0  0
  7  8  1  0  0  0  0
  8 33  1  0  0  0  0
  8 32  1  0  0  0  0
  9 34  1  0  0  0  0
  9  8  1  0  0  0  0
 10 11  3  0  0  0  0
 12  7  1  0  0  0  0
 12 13  2  0  0  0  0
 13 36  1  0  0  0  0
 14 13  1  0  0  0  0
 14 37  1  0  0  0  0
 15 14  2  0  0  0  0
 16 15  1  0  0  0  0
 16 17  1  0  0  0  0
 17 40  1  0  0  0  0
 18 19  2  0  0  0  0
 18 15  1  0  0  0  0
 19 12  1  0  0  0  0
 20 18  1  0  0  0  0
 20 21  1  0  0  0  0
 21 42  1  0  0  0  0
 21 25  1  0  0  0  0
 22 23  1  0  0  0  0
 22 44  1  0  0  0  0
 22 21  1  0  0  0  0
 23 46  1  0  0  0  0
 23 24  1  0  0  0  0
 24 25  1  0  0  0  0
 24 47  1  0  0  0  0
 25 49  1  0  0  0  0
 25 50  1  0  0  0  0
 26  1  1  0  0  0  0
 28  5  1  0  0  0  0
 30  6  1  0  0  0  0
 31  6  1  0  0  0  0
 35  9  1  0  0  0  0
 38 17  1  0  0  0  0
 39 17  1  0  0  0  0
 41 19  1  0  0  0  0
 43 22  1  0  0  0  0
 45 23  1  0  0  0  0
 48 24  1  0  0  0  0
M  END
