omegapdb_1xom_14.log
 OpenBabel09261812563D

 50 52  0  0  1  0  0  0  0  0999 V2000
   -5.7696   -2.4938    0.3905 O   0  0  0  0  0  0  0  0  0  0  0  0
   -5.4798   -1.3567   -0.2868 C   0  0  0  0  0  0  0  0  0  0  0  0
   -6.3609   -0.7235   -0.8017 O   0  0  0  0  0  0  0  0  0  0  0  0
   -4.0048   -0.9747   -0.3252 C   0  0  1  0  0  0  0  0  0  0  0  0
   -3.7857    0.2459   -1.2190 C   0  0  0  0  0  0  0  0  0  0  0  0
   -2.3119    0.6466   -1.2667 C   0  0  0  0  0  0  0  0  0  0  0  0
   -1.7134    0.9067    0.1397 C   0  0  2  0  0  0  0  0  0  0  0  0
   -1.9791   -0.3221    1.0466 C   0  0  0  0  0  0  0  0  0  0  0  0
   -3.4558   -0.7166    1.0903 C   0  0  0  0  0  0  0  0  0  0  0  0
   -2.4307    2.0553    0.7320 C   0  0  0  0  0  0  0  0  0  0  0  0
   -3.0194    2.9352    1.1994 N   0  0  0  0  0  0  0  0  0  0  0  0
   -0.2160    1.2148    0.0521 C   0  0  0  0  0  0  0  0  0  0  0  0
    0.3255    2.4330    0.4390 C   0  0  0  0  0  0  0  0  0  0  0  0
    1.6959    2.6805    0.3303 C   0  0  0  0  0  0  0  0  0  0  0  0
    2.5528    1.7078   -0.1696 C   0  0  0  0  0  0  0  0  0  0  0  0
    3.8930    1.8563   -0.3295 O   0  0  0  0  0  0  0  0  0  0  0  0
    4.4554    3.1063    0.0124 C   0  0  0  0  0  0  0  0  0  0  0  0
    2.0162    0.4617   -0.5539 C   0  0  0  0  0  0  0  0  0  0  0  0
    0.6562    0.2359   -0.4429 C   0  0  0  0  0  0  0  0  0  0  0  0
    2.8121   -0.5097   -1.0960 O   0  0  0  0  0  0  0  0  0  0  0  0
    3.7043   -1.1541   -0.1860 C   0  0  0  0  0  0  0  0  0  0  0  0
    4.6391   -2.0714   -0.9710 C   0  0  0  0  0  0  0  0  0  0  0  0
    5.0993   -3.1410    0.0452 C   0  0  0  0  0  0  0  0  0  0  0  0
    4.1789   -2.9758    1.2832 C   0  0  0  0  0  0  0  0  0  0  0  0
    3.0185   -2.0980    0.8018 C   0  0  0  0  0  0  0  0  0  0  0  0
   -4.9573   -2.8964    0.7272 H   0  0  0  0  0  0  0  0  0  0  0  0
   -3.4581   -1.8322   -0.7523 H   0  0  0  0  0  0  0  0  0  0  0  0
   -4.3967    1.0741   -0.8409 H   0  0  0  0  0  0  0  0  0  0  0  0
   -4.1495    0.0357   -2.2295 H   0  0  0  0  0  0  0  0  0  0  0  0
   -1.7221   -0.1532   -1.7326 H   0  0  0  0  0  0  0  0  0  0  0  0
   -2.1757    1.5403   -1.8847 H   0  0  0  0  0  0  0  0  0  0  0  0
   -1.3886   -1.1593    0.6540 H   0  0  0  0  0  0  0  0  0  0  0  0
   -1.6068   -0.1143    2.0555 H   0  0  0  0  0  0  0  0  0  0  0  0
   -3.5648   -1.6016    1.7305 H   0  0  0  0  0  0  0  0  0  0  0  0
   -4.0431    0.0820    1.5623 H   0  0  0  0  0  0  0  0  0  0  0  0
   -0.3163    3.2178    0.8299 H   0  0  0  0  0  0  0  0  0  0  0  0
    2.0785    3.6491    0.6347 H   0  0  0  0  0  0  0  0  0  0  0  0
    4.3126    3.3327    1.0768 H   0  0  0  0  0  0  0  0  0  0  0  0
    4.0255    3.9154   -0.5913 H   0  0  0  0  0  0  0  0  0  0  0  0
    5.5221    3.0237   -0.1999 H   0  0  0  0  0  0  0  0  0  0  0  0
    0.2969   -0.7371   -0.7696 H   0  0  0  0  0  0  0  0  0  0  0  0
    4.2779   -0.3922    0.3572 H   0  0  0  0  0  0  0  0  0  0  0  0
    5.4652   -1.5237   -1.4331 H   0  0  0  0  0  0  0  0  0  0  0  0
    4.0525   -2.5226   -1.7797 H   0  0  0  0  0  0  0  0  0  0  0  0
    6.1509   -3.0107    0.3195 H   0  0  0  0  0  0  0  0  0  0  0  0
    5.0101   -4.1442   -0.3834 H   0  0  0  0  0  0  0  0  0  0  0  0
    3.8404   -3.9337    1.6895 H   0  0  0  0  0  0  0  0  0  0  0  0
    4.7186   -2.4624    2.0881 H   0  0  0  0  0  0  0  0  0  0  0  0
    2.4970   -1.5783    1.6125 H   0  0  0  0  0  0  0  0  0  0  0  0
    2.2808   -2.6951    0.2483 H   0  0  0  0  0  0  0  0  0  0  0  0
  1 26  1  0  0  0  0
  2  1  1  0  0  0  0
  3  2  2  0  0  0  0
  4 27  1  6  0  0  0
  4  2  1  0  0  0  0
  4  9  1  0  0  0  0
  5 28  1  0  0  0  0
  5  4  1  0  0  0  0
  6  5  1  0  0  0  0
  6  7  1  0  0  0  0
  7 10  1  1  0  0  0
  7  8  1  0  0  0  0
  8  9  1  0  0  0  0
  8 33  1  0  0  0  0
  9 35  1  0  0  0  0
  9 34  1  0  0  0  0
 10 11  3  0  0  0  0
 12  7  1  0  0  0  0
 12 13  2  0  0  0  0
 13 36  1  0  0  0  0
 14 13  1  0  0  0  0
 14 37  1  0  0  0  0
 15 14  2  0  0  0  0
 16 15  1  0  0  0  0
 16 17  1  0  0  0  0
 17 38  1  0  0  0  0
 18 19  2  0  0  0  0
 18 15  1  0  0  0  0
 19 12  1  0  0  0  0
 20 18  1  0  0  0  0
 20 21  1  0  0  0  0
 21 42  1  0  0  0  0
 21 25  1  0  0  0  0
 22 21  1  0  0  0  0
 22 23  1  0  0  0  0
 23 45  1  0  0  0  0
 23 24  1  0  0  0  0
 24 47  1  0  0  0  0
 24 48  1  0  0  0  0
 25 24  1  0  0  0  0
 25 49  1  0  0  0  0
 29  5  1  0  0  0  0
 30  6  1  0  0  0  0
 31  6  1  0  0  0  0
 32  8  1  0  0  0  0
 39 17  1  0  0  0  0
 40 17  1  0  0  0  0
 41 19  1  0  0  0  0
 43 22  1  0  0  0  0
 44 22  1  0  0  0  0
 46 23  1  0  0  0  0
 50 25  1  0  0  0  0
M  END
