omegapdb_1v2k_03.log
 OpenBabel09261812563D

 61 65  0  0  0  0  0  0  0  0999 V2000
    8.9727    3.4425   -0.1462 N   0  0  0  0  0  0  0  0  0  0  0  0
    8.3314    3.1690    0.9921 C   0  0  0  0  0  0  0  0  0  0  0  0
    7.3419    2.2097    1.1401 C   0  0  0  0  0  0  0  0  0  0  0  0
    6.9496    1.4451    0.0239 C   0  0  0  0  0  0  0  0  0  0  0  0
    7.6214    1.7287   -1.1815 C   0  0  0  0  0  0  0  0  0  0  0  0
    8.5978    2.7116   -1.1993 C   0  0  0  0  0  0  0  0  0  0  0  0
    5.9747    0.4824    0.1010 N   0  0  0  0  0  0  0  0  0  0  0  0
    5.7932   -0.4981   -0.9658 C   0  0  0  0  0  0  0  0  0  0  0  0
    5.2096   -1.7898   -0.4027 C   0  0  0  0  0  0  0  0  0  0  0  0
    3.8298   -1.5805    0.2445 C   0  0  0  0  0  0  0  0  0  0  0  0
    3.7293   -0.1529    0.8340 C   0  0  0  0  0  0  0  0  0  0  0  0
    5.0921    0.3951    1.2524 C   0  0  0  0  0  0  0  0  0  0  0  0
    2.7215   -1.7676   -0.7930 C   0  0  0  0  0  0  0  0  0  0  0  0
    2.9659   -1.6439   -1.9869 O   0  0  0  0  0  0  0  0  0  0  0  0
    1.4526   -2.0294   -0.3489 N   0  0  0  0  0  0  0  0  0  0  0  0
    0.3634   -2.1161   -1.3157 C   0  0  0  0  0  0  0  0  0  0  0  0
   -0.6703   -1.0276   -1.0295 C   0  0  0  0  0  0  0  0  0  0  0  0
   -1.1255   -1.0532    0.3675 N   0  0  0  0  0  0  0  0  0  0  0  0
   -0.0230   -1.0409    1.3320 C   0  0  0  0  0  0  0  0  0  0  0  0
    1.0087   -2.1311    1.0332 C   0  0  0  0  0  0  0  0  0  0  0  0
   -2.4251   -2.0510    0.7066 S   0  0  0  0  0  0  0  0  0  0  0  0
   -2.3976   -3.2364   -0.1423 O   0  0  0  0  0  0  0  0  0  0  0  0
   -2.4689   -2.1779    2.1555 O   0  0  0  0  0  0  0  0  0  0  0  0
   -3.8081   -1.0668    0.1787 C   0  0  0  0  0  0  0  0  0  0  0  0
   -4.2604   -0.0724    1.0042 C   0  0  0  0  0  0  0  0  0  0  0  0
   -5.3599    0.7262    0.6061 C   0  0  0  0  0  0  0  0  0  0  0  0
   -5.9770    0.4776   -0.6478 C   0  0  0  0  0  0  0  0  0  0  0  0
   -5.4847   -0.5733   -1.4676 C   0  0  0  0  0  0  0  0  0  0  0  0
   -4.4232   -1.3388   -1.0660 C   0  0  0  0  0  0  0  0  0  0  0  0
   -7.0788    1.2801   -1.0486 C   0  0  0  0  0  0  0  0  0  0  0  0
   -7.5277    2.2752   -0.2266 C   0  0  0  0  0  0  0  0  0  0  0  0
   -6.9223    2.5330    1.0287 C   0  0  0  0  0  0  0  0  0  0  0  0
   -5.8625    1.7703    1.4304 C   0  0  0  0  0  0  0  0  0  0  0  0
   -8.8747    3.2595   -0.7113 Cl  0  0  0  0  0  0  0  0  0  0  0  0
    8.6345    3.7543    1.8603 H   0  0  0  0  0  0  0  0  0  0  0  0
    6.9098    2.0447    2.1213 H   0  0  0  0  0  0  0  0  0  0  0  0
    7.3687    1.2160   -2.1032 H   0  0  0  0  0  0  0  0  0  0  0  0
    9.1101    2.9307   -2.1360 H   0  0  0  0  0  0  0  0  0  0  0  0
    5.1436   -0.1190   -1.7672 H   0  0  0  0  0  0  0  0  0  0  0  0
    6.7715   -0.7161   -1.4065 H   0  0  0  0  0  0  0  0  0  0  0  0
    5.1361   -2.5245   -1.2080 H   0  0  0  0  0  0  0  0  0  0  0  0
    5.9030   -2.1852    0.3490 H   0  0  0  0  0  0  0  0  0  0  0  0
    3.7175   -2.3156    1.0494 H   0  0  0  0  0  0  0  0  0  0  0  0
    3.3125    0.5271    0.0799 H   0  0  0  0  0  0  0  0  0  0  0  0
    3.0520   -0.1270    1.6959 H   0  0  0  0  0  0  0  0  0  0  0  0
    5.5230   -0.2266    2.0552 H   0  0  0  0  0  0  0  0  0  0  0  0
    4.9501    1.3991    1.6650 H   0  0  0  0  0  0  0  0  0  0  0  0
   -0.1126   -3.1011   -1.2391 H   0  0  0  0  0  0  0  0  0  0  0  0
    0.7925   -1.9968   -2.3110 H   0  0  0  0  0  0  0  0  0  0  0  0
   -0.2285   -0.0387   -1.2016 H   0  0  0  0  0  0  0  0  0  0  0  0
   -1.5327   -1.1248   -1.6955 H   0  0  0  0  0  0  0  0  0  0  0  0
    0.4535   -0.0549    1.2553 H   0  0  0  0  0  0  0  0  0  0  0  0
   -0.4341   -1.1545    2.3364 H   0  0  0  0  0  0  0  0  0  0  0  0
    0.5526   -3.1187    1.1918 H   0  0  0  0  0  0  0  0  0  0  0  0
    1.8500   -2.0411    1.7210 H   0  0  0  0  0  0  0  0  0  0  0  0
   -3.7854    0.0990    1.9670 H   0  0  0  0  0  0  0  0  0  0  0  0
   -5.9713   -0.7692   -2.4199 H   0  0  0  0  0  0  0  0  0  0  0  0
   -4.0558   -2.1627   -1.6704 H   0  0  0  0  0  0  0  0  0  0  0  0
   -7.5590    1.0982   -2.0059 H   0  0  0  0  0  0  0  0  0  0  0  0
   -7.3106    3.3320    1.6523 H   0  0  0  0  0  0  0  0  0  0  0  0
   -5.3895    1.9555    2.3916 H   0  0  0  0  0  0  0  0  0  0  0  0
  1  2  2  0  0  0  0
  2  3  1  0  0  0  0
  2 35  1  0  0  0  0
  3 36  1  0  0  0  0
  4  7  1  0  0  0  0
  4  3  2  0  0  0  0
  5  4  1  0  0  0  0
  6  5  2  0  0  0  0
  6  1  1  0  0  0  0
  7 12  1  0  0  0  0
  8  9  1  0  0  0  0
  8  7  1  0  0  0  0
  9 10  1  0  0  0  0
  9 42  1  0  0  0  0
 10 11  1  0  0  0  0
 10 43  1  0  0  0  0
 11 12  1  0  0  0  0
 11 45  1  0  0  0  0
 12 47  1  0  0  0  0
 12 46  1  0  0  0  0
 13 15  1  0  0  0  0
 13 10  1  0  0  0  0
 14 13  2  0  0  0  0
 15 20  1  0  0  0  0
 16 48  1  0  0  0  0
 16 17  1  0  0  0  0
 16 15  1  0  0  0  0
 17 18  1  0  0  0  0
 18 21  1  0  0  0  0
 18 19  1  0  0  0  0
 19 53  1  0  0  0  0
 20 54  1  0  0  0  0
 20 19  1  0  0  0  0
 20 55  1  0  0  0  0
 21 23  2  0  0  0  0
 22 21  2  0  0  0  0
 24 21  1  0  0  0  0
 24 25  2  0  0  0  0
 25 56  1  0  0  0  0
 26 25  1  0  0  0  0
 26 33  2  0  0  0  0
 27 26  1  0  0  0  0
 28 29  2  0  0  0  0
 28 27  1  0  0  0  0
 29 24  1  0  0  0  0
 30 27  2  0  0  0  0
 30 31  1  0  0  0  0
 31 32  2  0  0  0  0
 32 33  1  0  0  0  0
 32 60  1  0  0  0  0
 33 61  1  0  0  0  0
 34 31  1  0  0  0  0
 37  5  1  0  0  0  0
 38  6  1  0  0  0  0
 39  8  1  0  0  0  0
 40  8  1  0  0  0  0
 41  9  1  0  0  0  0
 44 11  1  0  0  0  0
 49 16  1  0  0  0  0
 50 17  1  0  0  0  0
 51 17  1  0  0  0  0
 52 19  1  0  0  0  0
 57 28  1  0  0  0  0
 58 29  1  0  0  0  0
 59 30  1  0  0  0  0
M  END
