omegapdb_2byh_06.log
 OpenBabel09261812563D

 40 42  0  0  0  0  0  0  0  0999 V2000
   -6.8700   -2.2265   -0.2237 O   0  0  0  0  0  0  0  0  0  0  0  0
   -6.6868   -1.1253    0.2589 C   0  0  0  0  0  0  0  0  0  0  0  0
   -7.8146   -0.3850    0.9491 C   0  0  0  0  0  0  0  0  0  0  0  0
   -5.3433   -0.4722    0.1844 C   0  0  0  0  0  0  0  0  0  0  0  0
   -4.3033   -1.1558   -0.4490 C   0  0  0  0  0  0  0  0  0  0  0  0
   -3.0310   -0.6149   -0.5543 C   0  0  0  0  0  0  0  0  0  0  0  0
   -2.7802    0.6522   -0.0130 C   0  0  0  0  0  0  0  0  0  0  0  0
   -3.8164    1.3469    0.6233 C   0  0  0  0  0  0  0  0  0  0  0  0
   -5.0811    0.7904    0.7212 C   0  0  0  0  0  0  0  0  0  0  0  0
   -1.5326    1.2943   -0.0790 N   0  0  0  0  0  0  0  0  0  0  0  0
   -0.3348    0.8061   -0.5557 C   0  0  0  0  0  0  0  0  0  0  0  0
   -0.2027   -0.3374   -0.9671 O   0  0  0  0  0  0  0  0  0  0  0  0
    0.7424    1.8247   -0.5354 C   0  0  0  0  0  0  0  0  0  0  0  0
    0.5449    3.2102   -0.7512 C   0  0  0  0  0  0  0  0  0  0  0  0
    1.6699    3.8941   -0.6646 N   0  0  0  0  0  0  0  0  0  0  0  0
    2.5927    2.9655   -0.3945 N   0  0  0  0  0  0  0  0  0  0  0  0
    2.1183    1.7005   -0.3066 C   0  0  0  0  0  0  0  0  0  0  0  0
    3.0120    0.5651   -0.0055 C   0  0  0  0  0  0  0  0  0  0  0  0
    2.6787   -0.7336   -0.4013 C   0  0  0  0  0  0  0  0  0  0  0  0
    3.5056   -1.8067   -0.1200 C   0  0  0  0  0  0  0  0  0  0  0  0
    3.0653   -3.4173   -0.6225 Cl  0  0  0  0  0  0  0  0  0  0  0  0
    4.7114   -1.6276    0.5631 C   0  0  0  0  0  0  0  0  0  0  0  0
    5.5558   -2.6325    0.8624 O   0  0  0  0  0  0  0  0  0  0  0  0
    5.0665   -0.3389    0.9504 C   0  0  0  0  0  0  0  0  0  0  0  0
    4.2372    0.7372    0.6690 C   0  0  0  0  0  0  0  0  0  0  0  0
    4.6040    1.9999    1.0425 O   0  0  0  0  0  0  0  0  0  0  0  0
   -7.5645   -0.1811    1.9963 H   0  0  0  0  0  0  0  0  0  0  0  0
   -8.0071    0.5769    0.4610 H   0  0  0  0  0  0  0  0  0  0  0  0
   -8.7143   -1.0005    0.9050 H   0  0  0  0  0  0  0  0  0  0  0  0
   -4.5155   -2.1369   -0.8639 H   0  0  0  0  0  0  0  0  0  0  0  0
   -2.2324   -1.1585   -1.0398 H   0  0  0  0  0  0  0  0  0  0  0  0
   -3.6257    2.3319    1.0459 H   0  0  0  0  0  0  0  0  0  0  0  0
   -5.8643    1.3533    1.2223 H   0  0  0  0  0  0  0  0  0  0  0  0
   -1.4928    2.2044    0.3559 H   0  0  0  0  0  0  0  0  0  0  0  0
   -0.3767    3.7217   -1.0038 H   0  0  0  0  0  0  0  0  0  0  0  0
    3.5438    3.2435   -0.2033 H   0  0  0  0  0  0  0  0  0  0  0  0
    1.7443   -0.8990   -0.9287 H   0  0  0  0  0  0  0  0  0  0  0  0
    5.1837   -3.4646    0.5310 H   0  0  0  0  0  0  0  0  0  0  0  0
    6.0099   -0.1997    1.4726 H   0  0  0  0  0  0  0  0  0  0  0  0
    5.4416    1.9585    1.5216 H   0  0  0  0  0  0  0  0  0  0  0  0
  1  2  2  0  0  0  0
  2  3  1  0  0  0  0
  3 27  1  0  0  0  0
  4  2  1  0  0  0  0
  4  9  2  0  0  0  0
  5  4  1  0  0  0  0
  6  5  2  0  0  0  0
  6  7  1  0  0  0  0
  7  8  2  0  0  0  0
  8  9  1  0  0  0  0
  8 32  1  0  0  0  0
  9 33  1  0  0  0  0
 10  7  1  0  0  0  0
 10 34  1  0  0  0  0
 11 13  1  0  0  0  0
 11 10  1  0  0  0  0
 12 11  2  0  0  0  0
 13 17  2  0  0  0  0
 14 15  2  0  0  0  0
 14 13  1  0  0  0  0
 15 16  1  0  0  0  0
 16 17  1  0  0  0  0
 16 36  1  0  0  0  0
 17 18  1  0  0  0  0
 18 25  2  0  0  0  0
 19 20  2  0  0  0  0
 19 18  1  0  0  0  0
 20 22  1  0  0  0  0
 21 20  1  0  0  0  0
 22 23  1  0  0  0  0
 22 24  2  0  0  0  0
 24 39  1  0  0  0  0
 25 24  1  0  0  0  0
 25 26  1  0  0  0  0
 26 40  1  0  0  0  0
 28  3  1  0  0  0  0
 29  3  1  0  0  0  0
 30  5  1  0  0  0  0
 31  6  1  0  0  0  0
 35 14  1  0  0  0  0
 37 19  1  0  0  0  0
 38 23  1  0  0  0  0
M  END
