omegapdb_2f7p_09.log
 OpenBabel09261812563D

 34 35  0  0  1  0  0  0  0  0999 V2000
    0.9132   -0.0726    0.5847 C   0  0  1  0  0  0  0  0  0  0  0  0
   -0.4316    0.1099    0.0860 N   0  0  0  0  0  0  0  0  0  0  0  0
   -1.4609   -0.4832    0.9345 C   0  0  0  0  0  0  0  0  0  0  0  0
   -2.8481   -0.2380    0.3814 C   0  0  0  0  0  0  0  0  0  0  0  0
   -3.8210   -1.2348    0.4428 C   0  0  0  0  0  0  0  0  0  0  0  0
   -5.1089   -1.0030   -0.0326 C   0  0  0  0  0  0  0  0  0  0  0  0
   -5.4355    0.2314   -0.5840 C   0  0  0  0  0  0  0  0  0  0  0  0
   -4.4679    1.2306   -0.6561 C   0  0  0  0  0  0  0  0  0  0  0  0
   -3.1841    0.9975   -0.1755 C   0  0  0  0  0  0  0  0  0  0  0  0
    1.5291   -1.4772    0.3766 C   0  0  1  0  0  0  0  0  0  0  0  0
    1.1476   -1.9263   -0.9019 O   0  0  0  0  0  0  0  0  0  0  0  0
    3.0715   -1.2446    0.4370 C   0  0  1  0  0  0  0  0  0  0  0  0
    3.6857   -1.8987   -0.6527 O   0  0  0  0  0  0  0  0  0  0  0  0
    3.2617    0.2982    0.3553 C   0  0  1  0  0  0  0  0  0  0  0  0
    4.3610    0.5668   -0.4937 O   0  0  0  0  0  0  0  0  0  0  0  0
    1.9194    0.8225   -0.1422 C   0  0  2  0  0  0  0  0  0  0  0  0
    1.7207    2.5976    0.1581 S   0  0  0  0  0  0  0  0  0  0  0  0
    0.9266    0.1825    1.6542 H   0  0  0  0  0  0  0  0  0  0  0  0
   -0.4741   -0.3317   -0.8316 H   0  0  0  0  0  0  0  0  0  0  0  0
   -1.3212   -1.5678    1.0838 H   0  0  0  0  0  0  0  0  0  0  0  0
   -1.3764   -0.0169    1.9262 H   0  0  0  0  0  0  0  0  0  0  0  0
   -3.5669   -2.2059    0.8645 H   0  0  0  0  0  0  0  0  0  0  0  0
   -5.8555   -1.7915    0.0212 H   0  0  0  0  0  0  0  0  0  0  0  0
   -6.4386    0.4134   -0.9616 H   0  0  0  0  0  0  0  0  0  0  0  0
   -4.7148    2.1967   -1.0897 H   0  0  0  0  0  0  0  0  0  0  0  0
   -2.4220    1.7700   -0.2365 H   0  0  0  0  0  0  0  0  0  0  0  0
    1.1983   -2.1952    1.1398 H   0  0  0  0  0  0  0  0  0  0  0  0
    1.9732   -2.2276   -1.3228 H   0  0  0  0  0  0  0  0  0  0  0  0
    3.4898   -1.6337    1.3725 H   0  0  0  0  0  0  0  0  0  0  0  0
    4.2664   -1.2392   -1.0706 H   0  0  0  0  0  0  0  0  0  0  0  0
    3.4546    0.6948    1.3630 H   0  0  0  0  0  0  0  0  0  0  0  0
    4.3118    1.4862   -0.7869 H   0  0  0  0  0  0  0  0  0  0  0  0
    1.8489    0.6184   -1.2173 H   0  0  0  0  0  0  0  0  0  0  0  0
    0.4239    2.6227   -0.1865 H   0  0  0  0  0  0  0  0  0  0  0  0
  1 16  1  6  0  0  0
  1 18  1  0  0  0  0
  2  1  1  0  0  0  0
  2  3  1  0  0  0  0
  3 20  1  0  0  0  0
  3 21  1  0  0  0  0
  4  5  1  0  0  0  0
  4  3  1  0  0  0  0
  5 22  1  0  0  0  0
  6 23  1  0  0  0  0
  6  5  2  0  0  0  0
  7  6  1  0  0  0  0
  8  7  2  0  0  0  0
  8  9  1  0  0  0  0
  9  4  2  0  0  0  0
 10 12  1  1  0  0  0
 10  1  1  0  0  0  0
 10 27  1  0  0  0  0
 11 10  1  0  0  0  0
 12 14  1  6  0  0  0
 12 29  1  0  0  0  0
 13 12  1  0  0  0  0
 14 16  1  6  0  0  0
 14 31  1  0  0  0  0
 15 14  1  0  0  0  0
 16 33  1  6  0  0  0
 16 17  1  0  0  0  0
 19  2  1  0  0  0  0
 24  7  1  0  0  0  0
 25  8  1  0  0  0  0
 26  9  1  0  0  0  0
 28 11  1  0  0  0  0
 30 13  1  0  0  0  0
 32 15  1  0  0  0  0
 34 17  1  0  0  0  0
M  END
