omegapdb_1v2k_16.log
 OpenBabel09261812563D

 61 65  0  0  0  0  0  0  0  0999 V2000
   -9.7012    1.9312   -0.1651 N   0  0  0  0  0  0  0  0  0  0  0  0
   -8.6630    2.2323   -0.9509 C   0  0  0  0  0  0  0  0  0  0  0  0
   -7.5255    1.4580   -1.1023 C   0  0  0  0  0  0  0  0  0  0  0  0
   -7.4104    0.2467   -0.3909 C   0  0  0  0  0  0  0  0  0  0  0  0
   -8.5013   -0.0760    0.4385 C   0  0  0  0  0  0  0  0  0  0  0  0
   -9.5869    0.7856    0.5067 C   0  0  0  0  0  0  0  0  0  0  0  0
   -6.3003   -0.5653   -0.4612 N   0  0  0  0  0  0  0  0  0  0  0  0
   -6.2297   -1.7703    0.3572 C   0  0  0  0  0  0  0  0  0  0  0  0
   -4.8502   -2.4254    0.2508 C   0  0  0  0  0  0  0  0  0  0  0  0
   -3.7555   -1.3585    0.2572 C   0  0  0  0  0  0  0  0  0  0  0  0
   -3.9046   -0.4409   -0.9855 C   0  0  0  0  0  0  0  0  0  0  0  0
   -5.3319   -0.5093   -1.5424 C   0  0  0  0  0  0  0  0  0  0  0  0
   -2.3791   -2.0172    0.3037 C   0  0  0  0  0  0  0  0  0  0  0  0
   -2.2453   -3.2162    0.0965 O   0  0  0  0  0  0  0  0  0  0  0  0
   -1.2950   -1.2205    0.5585 N   0  0  0  0  0  0  0  0  0  0  0  0
    0.0270   -1.8403    0.5243 C   0  0  0  0  0  0  0  0  0  0  0  0
    1.0613   -0.8527    0.0087 C   0  0  0  0  0  0  0  0  0  0  0  0
    1.1315    0.3148    0.9064 N   0  0  0  0  0  0  0  0  0  0  0  0
   -0.1076    0.6053    1.6437 C   0  0  0  0  0  0  0  0  0  0  0  0
   -1.3397    0.2130    0.8366 C   0  0  0  0  0  0  0  0  0  0  0  0
    1.9400    1.6310    0.2602 S   0  0  0  0  0  0  0  0  0  0  0  0
    1.7439    2.7319    1.1905 O   0  0  0  0  0  0  0  0  0  0  0  0
    1.6137    1.7967   -1.1517 O   0  0  0  0  0  0  0  0  0  0  0  0
    3.6234    1.0812    0.3598 C   0  0  0  0  0  0  0  0  0  0  0  0
    4.3169    0.8404   -0.7932 C   0  0  0  0  0  0  0  0  0  0  0  0
    5.6705    0.4159   -0.7235 C   0  0  0  0  0  0  0  0  0  0  0  0
    6.2776    0.2522    0.5478 C   0  0  0  0  0  0  0  0  0  0  0  0
    5.5183    0.5222    1.7226 C   0  0  0  0  0  0  0  0  0  0  0  0
    4.2182    0.9304    1.6379 C   0  0  0  0  0  0  0  0  0  0  0  0
    7.6289   -0.1740    0.6200 C   0  0  0  0  0  0  0  0  0  0  0  0
    8.3252   -0.4204   -0.5315 C   0  0  0  0  0  0  0  0  0  0  0  0
    7.7324   -0.2601   -1.8065 C   0  0  0  0  0  0  0  0  0  0  0  0
    6.4307    0.1506   -1.8932 C   0  0  0  0  0  0  0  0  0  0  0  0
    9.9802   -0.9427   -0.4490 Cl  0  0  0  0  0  0  0  0  0  0  0  0
   -8.7408    3.1696   -1.5014 H   0  0  0  0  0  0  0  0  0  0  0  0
   -6.7370    1.8181   -1.7538 H   0  0  0  0  0  0  0  0  0  0  0  0
   -8.5233   -0.9921    1.0172 H   0  0  0  0  0  0  0  0  0  0  0  0
  -10.4277    0.5246    1.1493 H   0  0  0  0  0  0  0  0  0  0  0  0
   -6.4148   -1.4887    1.4024 H   0  0  0  0  0  0  0  0  0  0  0  0
   -7.0119   -2.4930    0.0733 H   0  0  0  0  0  0  0  0  0  0  0  0
   -4.7147   -3.1208    1.0837 H   0  0  0  0  0  0  0  0  0  0  0  0
   -4.7611   -3.0282   -0.6584 H   0  0  0  0  0  0  0  0  0  0  0  0
   -3.8928   -0.7476    1.1596 H   0  0  0  0  0  0  0  0  0  0  0  0
   -3.2034   -0.7434   -1.7737 H   0  0  0  0  0  0  0  0  0  0  0  0
   -3.6671    0.5952   -0.7218 H   0  0  0  0  0  0  0  0  0  0  0  0
   -5.4445   -1.3960   -2.1835 H   0  0  0  0  0  0  0  0  0  0  0  0
   -5.5283    0.3519   -2.1795 H   0  0  0  0  0  0  0  0  0  0  0  0
    0.3106   -2.2091    1.5193 H   0  0  0  0  0  0  0  0  0  0  0  0
   -0.0256   -2.7061   -0.1381 H   0  0  0  0  0  0  0  0  0  0  0  0
    2.0449   -1.3340   -0.0272 H   0  0  0  0  0  0  0  0  0  0  0  0
    0.7949   -0.5423   -1.0101 H   0  0  0  0  0  0  0  0  0  0  0  0
   -0.0897    0.0479    2.5872 H   0  0  0  0  0  0  0  0  0  0  0  0
   -0.1303    1.6688    1.8882 H   0  0  0  0  0  0  0  0  0  0  0  0
   -1.3650    0.8005   -0.0922 H   0  0  0  0  0  0  0  0  0  0  0  0
   -2.2365    0.4580    1.4137 H   0  0  0  0  0  0  0  0  0  0  0  0
    3.8325    0.9800   -1.7563 H   0  0  0  0  0  0  0  0  0  0  0  0
    5.9937    0.4019    2.6930 H   0  0  0  0  0  0  0  0  0  0  0  0
    3.6357    1.1476    2.5281 H   0  0  0  0  0  0  0  0  0  0  0  0
    8.1045   -0.3019    1.5883 H   0  0  0  0  0  0  0  0  0  0  0  0
    8.3190   -0.4647   -2.6964 H   0  0  0  0  0  0  0  0  0  0  0  0
    5.9626    0.2798   -2.8660 H   0  0  0  0  0  0  0  0  0  0  0  0
  1  6  2  0  0  0  0
  2  1  1  0  0  0  0
  3  2  2  0  0  0  0
  3  4  1  0  0  0  0
  4  5  2  0  0  0  0
  5  6  1  0  0  0  0
  5 37  1  0  0  0  0
  6 38  1  0  0  0  0
  7  4  1  0  0  0  0
  7  8  1  0  0  0  0
  8 39  1  0  0  0  0
  9 10  1  0  0  0  0
  9  8  1  0  0  0  0
  9 41  1  0  0  0  0
 10 13  1  0  0  0  0
 10 43  1  0  0  0  0
 11 45  1  0  0  0  0
 11 10  1  0  0  0  0
 12 11  1  0  0  0  0
 12  7  1  0  0  0  0
 13 15  1  0  0  0  0
 14 13  2  0  0  0  0
 15 20  1  0  0  0  0
 16 15  1  0  0  0  0
 16 48  1  0  0  0  0
 17 16  1  0  0  0  0
 17 18  1  0  0  0  0
 18 19  1  0  0  0  0
 19 53  1  0  0  0  0
 19 52  1  0  0  0  0
 20 55  1  0  0  0  0
 20 19  1  0  0  0  0
 21 24  1  0  0  0  0
 21 18  1  0  0  0  0
 21 22  2  0  0  0  0
 23 21  2  0  0  0  0
 24 29  2  0  0  0  0
 25 26  2  0  0  0  0
 25 24  1  0  0  0  0
 26 27  1  0  0  0  0
 27 30  1  0  0  0  0
 27 28  2  0  0  0  0
 28 57  1  0  0  0  0
 29 28  1  0  0  0  0
 29 58  1  0  0  0  0
 30 59  1  0  0  0  0
 31 34  1  0  0  0  0
 31 30  2  0  0  0  0
 32 31  1  0  0  0  0
 33 32  2  0  0  0  0
 33 26  1  0  0  0  0
 35  2  1  0  0  0  0
 36  3  1  0  0  0  0
 40  8  1  0  0  0  0
 42  9  1  0  0  0  0
 44 11  1  0  0  0  0
 46 12  1  0  0  0  0
 47 12  1  0  0  0  0
 49 16  1  0  0  0  0
 50 17  1  0  0  0  0
 51 17  1  0  0  0  0
 54 20  1  0  0  0  0
 56 25  1  0  0  0  0
 60 32  1  0  0  0  0
 61 33  1  0  0  0  0
M  END
