omegapdb_1xom_10.log
 OpenBabel09261812563D

 50 52  0  0  1  0  0  0  0  0999 V2000
    6.2303    1.7984   -0.4280 O   0  0  0  0  0  0  0  0  0  0  0  0
    5.5505    0.6801   -0.7548 C   0  0  0  0  0  0  0  0  0  0  0  0
    6.0964   -0.3902   -0.8831 O   0  0  0  0  0  0  0  0  0  0  0  0
    4.0697    0.9554   -0.9027 C   0  0  1  0  0  0  0  0  0  0  0  0
    3.3114   -0.2979   -1.3698 C   0  0  0  0  0  0  0  0  0  0  0  0
    2.8493   -1.1260   -0.1747 C   0  0  0  0  0  0  0  0  0  0  0  0
    1.7877   -0.3531    0.6819 C   0  0  2  0  0  0  0  0  0  0  0  0
    2.0177    1.1741    0.5329 C   0  0  0  0  0  0  0  0  0  0  0  0
    3.5072    1.4930    0.4388 C   0  0  0  0  0  0  0  0  0  0  0  0
    2.0303   -0.6944    2.1009 C   0  0  0  0  0  0  0  0  0  0  0  0
    2.2468   -0.9559    3.2076 N   0  0  0  0  0  0  0  0  0  0  0  0
    0.3576   -0.7979    0.3333 C   0  0  0  0  0  0  0  0  0  0  0  0
   -0.0065   -2.1253    0.5490 C   0  0  0  0  0  0  0  0  0  0  0  0
   -1.2778   -2.5929    0.2308 C   0  0  0  0  0  0  0  0  0  0  0  0
   -2.2269   -1.7316   -0.3153 C   0  0  0  0  0  0  0  0  0  0  0  0
   -3.4858   -2.0914   -0.6783 O   0  0  0  0  0  0  0  0  0  0  0  0
   -3.8500   -3.4458   -0.5121 C   0  0  0  0  0  0  0  0  0  0  0  0
   -1.8820   -0.3841   -0.5150 C   0  0  0  0  0  0  0  0  0  0  0  0
   -0.6085    0.0636   -0.1902 C   0  0  0  0  0  0  0  0  0  0  0  0
   -2.7647    0.4900   -1.0884 O   0  0  0  0  0  0  0  0  0  0  0  0
   -3.8718    0.8771   -0.2740 C   0  0  0  0  0  0  0  0  0  0  0  0
   -4.8689    1.6547   -1.1281 C   0  0  0  0  0  0  0  0  0  0  0  0
   -5.6770    2.5026   -0.1219 C   0  0  0  0  0  0  0  0  0  0  0  0
   -4.8769    2.4615    1.2087 C   0  0  0  0  0  0  0  0  0  0  0  0
   -3.5153    1.8581    0.8427 C   0  0  0  0  0  0  0  0  0  0  0  0
    7.1584    1.5295   -0.3264 H   0  0  0  0  0  0  0  0  0  0  0  0
    3.9741    1.7475   -1.6563 H   0  0  0  0  0  0  0  0  0  0  0  0
    3.9625   -0.9044   -2.0050 H   0  0  0  0  0  0  0  0  0  0  0  0
    2.4458   -0.0063   -1.9768 H   0  0  0  0  0  0  0  0  0  0  0  0
    3.7236   -1.3662    0.4407 H   0  0  0  0  0  0  0  0  0  0  0  0
    2.4234   -2.0779   -0.5029 H   0  0  0  0  0  0  0  0  0  0  0  0
    1.5469    1.7041    1.3672 H   0  0  0  0  0  0  0  0  0  0  0  0
    1.5323    1.5228   -0.3841 H   0  0  0  0  0  0  0  0  0  0  0  0
    3.6812    2.5699    0.5130 H   0  0  0  0  0  0  0  0  0  0  0  0
    4.0312    1.0374    1.2895 H   0  0  0  0  0  0  0  0  0  0  0  0
    0.7100   -2.8189    0.9848 H   0  0  0  0  0  0  0  0  0  0  0  0
   -1.5149   -3.6362    0.4105 H   0  0  0  0  0  0  0  0  0  0  0  0
   -3.8094   -3.7468    0.5426 H   0  0  0  0  0  0  0  0  0  0  0  0
   -4.8764   -3.5278   -0.8723 H   0  0  0  0  0  0  0  0  0  0  0  0
   -3.2045   -4.1077   -1.1032 H   0  0  0  0  0  0  0  0  0  0  0  0
   -0.4144    1.1160   -0.3678 H   0  0  0  0  0  0  0  0  0  0  0  0
   -4.3427   -0.0208    0.1466 H   0  0  0  0  0  0  0  0  0  0  0  0
   -4.2898    2.2935   -1.8054 H   0  0  0  0  0  0  0  0  0  0  0  0
   -5.4886    0.9985   -1.7458 H   0  0  0  0  0  0  0  0  0  0  0  0
   -6.6855    2.1009    0.0197 H   0  0  0  0  0  0  0  0  0  0  0  0
   -5.7976    3.5280   -0.4852 H   0  0  0  0  0  0  0  0  0  0  0  0
   -5.3850    1.8142    1.9331 H   0  0  0  0  0  0  0  0  0  0  0  0
   -4.7838    3.4465    1.6759 H   0  0  0  0  0  0  0  0  0  0  0  0
   -3.0037    1.3890    1.6895 H   0  0  0  0  0  0  0  0  0  0  0  0
   -2.8483    2.6236    0.4238 H   0  0  0  0  0  0  0  0  0  0  0  0
  1 26  1  0  0  0  0
  2  1  1  0  0  0  0
  3  2  2  0  0  0  0
  4 27  1  6  0  0  0
  4  2  1  0  0  0  0
  4  9  1  0  0  0  0
  5  4  1  0  0  0  0
  5  6  1  0  0  0  0
  6 30  1  0  0  0  0
  6  7  1  0  0  0  0
  7 10  1  1  0  0  0
  8  7  1  0  0  0  0
  8 32  1  0  0  0  0
  9 34  1  0  0  0  0
  9  8  1  0  0  0  0
  9 35  1  0  0  0  0
 10 11  3  0  0  0  0
 12 13  1  0  0  0  0
 12  7  1  0  0  0  0
 13 36  1  0  0  0  0
 14 37  1  0  0  0  0
 14 13  2  0  0  0  0
 15 14  1  0  0  0  0
 16 17  1  0  0  0  0
 16 15  1  0  0  0  0
 17 38  1  0  0  0  0
 18 15  2  0  0  0  0
 18 19  1  0  0  0  0
 19 12  2  0  0  0  0
 20 18  1  0  0  0  0
 20 21  1  0  0  0  0
 21 42  1  0  0  0  0
 21 25  1  0  0  0  0
 22 21  1  0  0  0  0
 22 23  1  0  0  0  0
 23 45  1  0  0  0  0
 23 24  1  0  0  0  0
 24 48  1  0  0  0  0
 24 47  1  0  0  0  0
 25 24  1  0  0  0  0
 25 49  1  0  0  0  0
 28  5  1  0  0  0  0
 29  5  1  0  0  0  0
 31  6  1  0  0  0  0
 33  8  1  0  0  0  0
 39 17  1  0  0  0  0
 40 17  1  0  0  0  0
 41 19  1  0  0  0  0
 43 22  1  0  0  0  0
 44 22  1  0  0  0  0
 46 23  1  0  0  0  0
 50 25  1  0  0  0  0
M  END
