omegapdb_1qxw_26.log
 OpenBabel09261812563D

 36 36  0  0  1  0  0  0  0  0999 V2000
    4.6645   -1.2421   -0.6049 C   0  0  0  0  0  0  0  0  0  0  0  0
    4.6207   -0.4432    0.6740 C   0  0  0  0  0  0  0  0  0  0  0  0
    3.7835   -0.0406   -0.5120 C   0  0  0  0  0  0  0  0  0  0  0  0
    2.3509   -0.2039   -0.5249 N   0  0  0  0  0  0  0  0  0  0  0  0
    1.6408    0.7487    0.3234 C   0  0  0  0  0  0  0  0  0  0  0  0
    0.1426    0.7746   -0.0381 C   0  0  0  0  0  0  0  0  0  0  0  0
   -0.6301   -0.4387    0.5429 C   0  0  1  0  0  0  0  0  0  0  0  0
   -0.8406   -0.3491    1.9864 N   0  0  0  0  0  0  0  0  0  0  0  0
   -1.9597   -0.7165   -0.1709 C   0  0  0  0  0  0  0  0  0  0  0  0
   -3.0441    0.3499   -0.0065 C   0  0  0  0  0  0  0  0  0  0  0  0
   -4.3508   -0.0096   -0.7205 C   0  0  0  0  0  0  0  0  0  0  0  0
   -5.0636   -1.2325   -0.1437 C   0  0  0  0  0  0  0  0  0  0  0  0
   -0.4379    1.9392    0.5047 O   0  0  0  0  0  0  0  0  0  0  0  0
    0.0377    0.8443   -1.4376 O   0  0  0  0  0  0  0  0  0  0  0  0
    5.5525   -1.1863   -1.2272 H   0  0  0  0  0  0  0  0  0  0  0  0
    4.1877   -2.2199   -0.6044 H   0  0  0  0  0  0  0  0  0  0  0  0
    5.4821    0.1635    0.9388 H   0  0  0  0  0  0  0  0  0  0  0  0
    4.1076   -0.8890    1.5232 H   0  0  0  0  0  0  0  0  0  0  0  0
    4.1021    0.8469   -1.0561 H   0  0  0  0  0  0  0  0  0  0  0  0
    2.1153   -1.1561   -0.2570 H   0  0  0  0  0  0  0  0  0  0  0  0
    1.7741    0.5730    1.4024 H   0  0  0  0  0  0  0  0  0  0  0  0
    2.0442    1.7457    0.1105 H   0  0  0  0  0  0  0  0  0  0  0  0
   -0.0022   -1.3263    0.3676 H   0  0  0  0  0  0  0  0  0  0  0  0
   -1.2357    0.5645    2.1954 H   0  0  0  0  0  0  0  0  0  0  0  0
    0.0476   -0.3887    2.4787 H   0  0  0  0  0  0  0  0  0  0  0  0
   -1.7585   -0.8592   -1.2390 H   0  0  0  0  0  0  0  0  0  0  0  0
   -2.3235   -1.6707    0.2287 H   0  0  0  0  0  0  0  0  0  0  0  0
   -2.6726    1.3049   -0.3920 H   0  0  0  0  0  0  0  0  0  0  0  0
   -3.2527    0.5016    1.0622 H   0  0  0  0  0  0  0  0  0  0  0  0
   -5.0282    0.8529   -0.6690 H   0  0  0  0  0  0  0  0  0  0  0  0
   -4.1461   -0.1734   -1.7880 H   0  0  0  0  0  0  0  0  0  0  0  0
   -6.0285   -1.3965   -0.6360 H   0  0  0  0  0  0  0  0  0  0  0  0
   -4.4727   -2.1465   -0.2671 H   0  0  0  0  0  0  0  0  0  0  0  0
   -5.2522   -1.1033    0.9291 H   0  0  0  0  0  0  0  0  0  0  0  0
   -0.2921    2.6290   -0.1576 H   0  0  0  0  0  0  0  0  0  0  0  0
    0.8585    0.4374   -1.7733 H   0  0  0  0  0  0  0  0  0  0  0  0
  1 16  1  0  0  0  0
  1  3  1  0  0  0  0
  1  2  1  0  0  0  0
  2 17  1  0  0  0  0
  2 18  1  0  0  0  0
  3  2  1  0  0  0  0
  4  3  1  0  0  0  0
  4 20  1  0  0  0  0
  4  5  1  0  0  0  0
  5 21  1  0  0  0  0
  6  5  1  0  0  0  0
  6 13  1  0  0  0  0
  6  7  1  0  0  0  0
  7 23  1  6  0  0  0
  7  8  1  0  0  0  0
  8 24  1  0  0  0  0
  8 25  1  0  0  0  0
  9 10  1  0  0  0  0
  9 27  1  0  0  0  0
  9  7  1  0  0  0  0
 10 29  1  0  0  0  0
 11 30  1  0  0  0  0
 11 12  1  0  0  0  0
 11 10  1  0  0  0  0
 12 34  1  0  0  0  0
 14  6  1  0  0  0  0
 15  1  1  0  0  0  0
 19  3  1  0  0  0  0
 22  5  1  0  0  0  0
 26  9  1  0  0  0  0
 28 10  1  0  0  0  0
 31 11  1  0  0  0  0
 32 12  1  0  0  0  0
 33 12  1  0  0  0  0
 35 13  1  0  0  0  0
 36 14  1  0  0  0  0
M  END
