omegapdb_1z1r_11.xyz
 OpenBabel12161914463D

 66 68  0  0  1  0  0  0  0  0999 V2000
    0.8652   -1.7928   -0.4923 C   0  0  2  0  0  0  0  0  0  0  0  0
    0.3429   -2.9727   -1.3319 C   0  0  0  0  0  0  0  0  0  0  0  0
   -1.1065   -3.2754   -1.0304 C   0  0  0  0  0  0  0  0  0  0  0  0
   -2.1272   -2.9317   -1.9203 C   0  0  0  0  0  0  0  0  0  0  0  0
   -3.4656   -3.0332   -1.5568 C   0  0  0  0  0  0  0  0  0  0  0  0
   -3.7963   -3.4852   -0.2801 C   0  0  0  0  0  0  0  0  0  0  0  0
   -2.7956   -3.9290    0.5823 C   0  0  0  0  0  0  0  0  0  0  0  0
   -1.4654   -3.8101    0.2112 C   0  0  0  0  0  0  0  0  0  0  0  0
   -5.0881   -3.4894    0.1726 O   0  0  0  0  0  0  0  0  0  0  0  0
   -5.7232   -2.2159    0.2566 C   0  0  0  0  0  0  0  0  0  0  0  0
   -5.0676   -1.2346    1.2300 C   0  0  0  0  0  0  0  0  0  0  0  0
   -3.9118   -0.4271    0.6463 C   0  0  0  0  0  0  0  0  0  0  0  0
   -3.3252    0.5230    1.6784 C   0  0  0  0  0  0  0  0  0  0  0  0
   -3.7083    0.5599    2.8329 O   0  0  0  0  0  0  0  0  0  0  0  0
   -2.3397    1.3857    1.2351 N   0  0  0  0  0  0  0  0  0  0  0  0
   -1.5114    1.1433    0.0730 C   0  0  2  0  0  0  0  0  0  0  0  0
   -0.4066    0.1201    0.4005 C   0  0  0  0  0  0  0  0  0  0  0  0
    0.0485    0.0179    1.5317 O   0  0  0  0  0  0  0  0  0  0  0  0
    0.0090   -0.6336   -0.6473 N   0  0  0  0  0  0  0  0  0  0  0  0
   -0.9039    2.4632   -0.4093 C   0  0  0  0  0  0  0  0  0  0  0  0
   -0.3312    2.3680   -1.8158 C   0  0  0  0  0  0  0  0  0  0  0  0
   -0.5284    1.4106   -2.5556 O   0  0  0  0  0  0  0  0  0  0  0  0
    0.4075    3.4351   -2.2090 N   0  0  0  0  0  0  0  0  0  0  0  0
    2.3152   -1.4625   -0.8513 C   0  0  2  0  0  0  0  0  0  0  0  0
    3.0547   -2.6618   -0.7898 O   0  0  0  0  0  0  0  0  0  0  0  0
    2.9132   -0.4145    0.0906 C   0  0  0  0  0  0  0  0  0  0  0  0
    4.3034   -0.1570   -0.2990 N   0  0  0  0  0  0  0  0  0  0  0  0
    5.2942    0.6392    0.7775 S   0  0  0  0  0  0  0  0  0  0  0  0
    5.2051   -0.0892    2.0293 O   0  0  0  0  0  0  0  0  0  0  0  0
    6.5496    0.8287    0.0736 O   0  0  0  0  0  0  0  0  0  0  0  0
    4.5698    2.2417    1.0438 C   0  0  0  0  0  0  0  0  0  0  0  0
    4.8251    3.2626    0.1317 C   0  0  0  0  0  0  0  0  0  0  0  0
    4.2414    4.5088    0.3314 C   0  0  0  0  0  0  0  0  0  0  0  0
    3.4300    4.7328    1.4411 C   0  0  0  0  0  0  0  0  0  0  0  0
    3.2001    3.7101    2.3582 C   0  0  0  0  0  0  0  0  0  0  0  0
    3.7719    2.4577    2.1654 C   0  0  0  0  0  0  0  0  0  0  0  0
    0.8371   -2.0591    0.5717 H   0  0  0  0  0  0  0  0  0  0  0  0
    0.9739   -3.8455   -1.1336 H   0  0  0  0  0  0  0  0  0  0  0  0
    0.4643   -2.7313   -2.3979 H   0  0  0  0  0  0  0  0  0  0  0  0
   -1.8741   -2.5429   -2.9048 H   0  0  0  0  0  0  0  0  0  0  0  0
   -4.2530   -2.7409   -2.2481 H   0  0  0  0  0  0  0  0  0  0  0  0
   -3.0796   -4.3118    1.5600 H   0  0  0  0  0  0  0  0  0  0  0  0
   -0.6876   -4.1151    0.9096 H   0  0  0  0  0  0  0  0  0  0  0  0
   -6.7391   -2.4501    0.5840 H   0  0  0  0  0  0  0  0  0  0  0  0
   -5.7918   -1.7620   -0.7438 H   0  0  0  0  0  0  0  0  0  0  0  0
   -4.7308   -1.7716    2.1226 H   0  0  0  0  0  0  0  0  0  0  0  0
   -5.8308   -0.5244    1.5686 H   0  0  0  0  0  0  0  0  0  0  0  0
   -4.2565    0.1611   -0.2163 H   0  0  0  0  0  0  0  0  0  0  0  0
   -3.0980   -1.0658    0.2791 H   0  0  0  0  0  0  0  0  0  0  0  0
   -1.8408    1.7844    2.0247 H   0  0  0  0  0  0  0  0  0  0  0  0
   -2.1415    0.7589   -0.7355 H   0  0  0  0  0  0  0  0  0  0  0  0
   -0.2865   -0.3574   -1.5775 H   0  0  0  0  0  0  0  0  0  0  0  0
   -1.6985    3.2187   -0.4010 H   0  0  0  0  0  0  0  0  0  0  0  0
   -0.1338    2.8027    0.2950 H   0  0  0  0  0  0  0  0  0  0  0  0
    0.5531    4.2371   -1.6187 H   0  0  0  0  0  0  0  0  0  0  0  0
    0.7849    3.4395   -3.1440 H   0  0  0  0  0  0  0  0  0  0  0  0
    2.3325   -1.0614   -1.8837 H   0  0  0  0  0  0  0  0  0  0  0  0
    3.9902   -2.4104   -0.7824 H   0  0  0  0  0  0  0  0  0  0  0  0
    2.9192   -0.8052    1.1130 H   0  0  0  0  0  0  0  0  0  0  0  0
    2.3175    0.5070    0.0840 H   0  0  0  0  0  0  0  0  0  0  0  0
    4.4325    0.2071   -1.2389 H   0  0  0  0  0  0  0  0  0  0  0  0
    5.4893    3.0844   -0.7101 H   0  0  0  0  0  0  0  0  0  0  0  0
    4.4292    5.3111   -0.3765 H   0  0  0  0  0  0  0  0  0  0  0  0
    2.9797    5.7099    1.5953 H   0  0  0  0  0  0  0  0  0  0  0  0
    2.5762    3.8896    3.2294 H   0  0  0  0  0  0  0  0  0  0  0  0
    3.6172    1.6507    2.8770 H   0  0  0  0  0  0  0  0  0  0  0  0
  1 37  1  1  0  0  0
  2 38  1  0  0  0  0
  2  3  1  0  0  0  0
  2  1  1  0  0  0  0
  3  8  2  0  0  0  0
  4  5  2  0  0  0  0
  4  3  1  0  0  0  0
  5  6  1  0  0  0  0
  6  9  1  0  0  0  0
  6  7  2  0  0  0  0
  7 42  1  0  0  0  0
  8  7  1  0  0  0  0
  8 43  1  0  0  0  0
  9 10  1  0  0  0  0
 10 44  1  0  0  0  0
 10 11  1  0  0  0  0
 11 47  1  0  0  0  0
 11 46  1  0  0  0  0
 12 11  1  0  0  0  0
 12 13  1  0  0  0  0
 13 14  2  0  0  0  0
 15 13  1  0  0  0  0
 15 50  1  0  0  0  0
 16 51  1  6  0  0  0
 16 17  1  0  0  0  0
 16 15  1  0  0  0  0
 17 18  2  0  0  0  0
 19  1  1  0  0  0  0
 19 17  1  0  0  0  0
 20 53  1  0  0  0  0
 20 16  1  0  0  0  0
 20 54  1  0  0  0  0
 21 20  1  0  0  0  0
 22 21  2  0  0  0  0
 23 21  1  0  0  0  0
 23 55  1  0  0  0  0
 24 57  1  6  0  0  0
 24 25  1  0  0  0  0
 24  1  1  0  0  0  0
 24 26  1  0  0  0  0
 25 58  1  0  0  0  0
 26 59  1  0  0  0  0
 27 26  1  0  0  0  0
 27 28  1  0  0  0  0
 28 31  1  0  0  0  0
 28 29  2  0  0  0  0
 30 28  2  0  0  0  0
 31 36  2  0  0  0  0
 32 33  2  0  0  0  0
 32 31  1  0  0  0  0
 33 34  1  0  0  0  0
 34 64  1  0  0  0  0
 34 35  2  0  0  0  0
 35 65  1  0  0  0  0
 36 35  1  0  0  0  0
 36 66  1  0  0  0  0
 39  2  1  0  0  0  0
 40  4  1  0  0  0  0
 41  5  1  0  0  0  0
 45 10  1  0  0  0  0
 48 12  1  0  0  0  0
 49 12  1  0  0  0  0
 52 19  1  0  0  0  0
 56 23  1  0  0  0  0
 60 26  1  0  0  0  0
 61 27  1  0  0  0  0
 62 32  1  0  0  0  0
 63 33  1  0  0  0  0
M  END
