omegapdb_1m5f_16.xyz
 OpenBabel12161914463D

 25 25  0  0  1  0  0  0  0  0999 V2000
    0.0673   -2.7830   -0.6523 O   0  0  0  0  0  0  0  0  0  0  0  0
   -1.2474   -2.7362   -0.3414 C   0  0  0  0  0  0  0  0  0  0  0  0
   -1.9484   -3.7113   -0.3115 O   0  0  0  0  0  0  0  0  0  0  0  0
   -1.6816   -1.3460   -0.0421 C   0  0  0  0  0  0  0  0  0  0  0  0
   -2.8543   -1.1790    0.5151 N   0  0  0  0  0  0  0  0  0  0  0  0
   -2.9895    0.1675    0.6899 O   0  0  0  0  0  0  0  0  0  0  0  0
   -1.8985    0.8064    0.2328 C   0  0  0  0  0  0  0  0  0  0  0  0
   -1.0070   -0.1011   -0.2596 C   0  0  0  0  0  0  0  0  0  0  0  0
    0.3763    0.1764   -0.7642 C   0  0  0  0  0  0  0  0  0  0  0  0
    1.4287    0.0526    0.3662 C   0  0  2  0  0  0  0  0  0  0  0  0
    1.2315    0.9472    1.4900 N   0  0  0  0  0  0  0  0  0  0  0  0
    2.7994    0.3331   -0.2124 C   0  0  0  0  0  0  0  0  0  0  0  0
    3.3622    1.3997   -0.1493 O   0  0  0  0  0  0  0  0  0  0  0  0
    3.3128   -0.7210   -0.8738 O   0  0  0  0  0  0  0  0  0  0  0  0
   -1.8982    2.2930    0.3355 C   0  0  0  0  0  0  0  0  0  0  0  0
    0.2739   -3.7142   -0.8363 H   0  0  0  0  0  0  0  0  0  0  0  0
    0.6333   -0.5188   -1.5630 H   0  0  0  0  0  0  0  0  0  0  0  0
    0.4191    1.1910   -1.1881 H   0  0  0  0  0  0  0  0  0  0  0  0
    1.4145   -0.9846    0.7119 H   0  0  0  0  0  0  0  0  0  0  0  0
    1.4613    1.8949    1.2069 H   0  0  0  0  0  0  0  0  0  0  0  0
    0.2650    0.9198    1.7995 H   0  0  0  0  0  0  0  0  0  0  0  0
    4.1661   -0.4267   -1.2335 H   0  0  0  0  0  0  0  0  0  0  0  0
   -2.2948    2.7581   -0.5747 H   0  0  0  0  0  0  0  0  0  0  0  0
   -2.5121    2.6131    1.1792 H   0  0  0  0  0  0  0  0  0  0  0  0
   -0.8795    2.6686    0.4746 H   0  0  0  0  0  0  0  0  0  0  0  0
  1  2  1  0  0  0  0
  2  3  2  0  0  0  0
  2  4  1  0  0  0  0
  4  5  2  0  0  0  0
  5  6  1  0  0  0  0
  7 15  1  0  0  0  0
  7  6  1  0  0  0  0
  8  4  1  0  0  0  0
  8  7  2  0  0  0  0
  9  8  1  0  0  0  0
  9 10  1  0  0  0  0
 10 19  1  1  0  0  0
 10 11  1  0  0  0  0
 11 21  1  0  0  0  0
 12 13  2  0  0  0  0
 12 10  1  0  0  0  0
 14 12  1  0  0  0  0
 15 25  1  0  0  0  0
 15 24  1  0  0  0  0
 16  1  1  0  0  0  0
 17  9  1  0  0  0  0
 18  9  1  0  0  0  0
 20 11  1  0  0  0  0
 22 14  1  0  0  0  0
 23 15  1  0  0  0  0
M  END
