omegapdb_1qxw_05.xyz
 OpenBabel12161914463D

 36 36  0  0  1  0  0  0  0  0999 V2000
    5.1391    0.7601   -0.0461 C   0  0  0  0  0  0  0  0  0  0  0  0
    4.1573    1.5353   -0.8840 C   0  0  0  0  0  0  0  0  0  0  0  0
    3.7693    1.0432    0.4866 C   0  0  0  0  0  0  0  0  0  0  0  0
    2.8404   -0.0319    0.6795 N   0  0  0  0  0  0  0  0  0  0  0  0
    1.5050    0.2005    0.1417 C   0  0  0  0  0  0  0  0  0  0  0  0
    0.6416   -0.9743    0.5899 C   0  0  0  0  0  0  0  0  0  0  0  0
   -0.8181   -0.9172    0.1059 C   0  0  1  0  0  0  0  0  0  0  0  0
   -1.3866   -2.2035    0.5134 N   0  0  0  0  0  0  0  0  0  0  0  0
   -1.5692    0.3274    0.5977 C   0  0  0  0  0  0  0  0  0  0  0  0
   -3.0629    0.3387    0.2625 C   0  0  0  0  0  0  0  0  0  0  0  0
   -3.3755    0.3827   -1.2336 C   0  0  0  0  0  0  0  0  0  0  0  0
   -4.8731    0.4554   -1.5177 C   0  0  0  0  0  0  0  0  0  0  0  0
    0.6213   -0.9965    2.0043 O   0  0  0  0  0  0  0  0  0  0  0  0
    1.2325   -2.1453    0.0708 O   0  0  0  0  0  0  0  0  0  0  0  0
    5.9846    1.2859    0.3879 H   0  0  0  0  0  0  0  0  0  0  0  0
    5.3599   -0.2615   -0.3461 H   0  0  0  0  0  0  0  0  0  0  0  0
    3.7234    1.0369   -1.7483 H   0  0  0  0  0  0  0  0  0  0  0  0
    4.3185    2.6016   -1.0105 H   0  0  0  0  0  0  0  0  0  0  0  0
    3.7059    1.8060    1.2614 H   0  0  0  0  0  0  0  0  0  0  0  0
    3.2019   -0.9034    0.3013 H   0  0  0  0  0  0  0  0  0  0  0  0
    1.4951    0.2894   -0.9563 H   0  0  0  0  0  0  0  0  0  0  0  0
    1.1026    1.1282    0.5620 H   0  0  0  0  0  0  0  0  0  0  0  0
   -0.7768   -0.9092   -0.9923 H   0  0  0  0  0  0  0  0  0  0  0  0
   -1.5506   -2.1960    1.5174 H   0  0  0  0  0  0  0  0  0  0  0  0
   -2.2713   -2.3895    0.0522 H   0  0  0  0  0  0  0  0  0  0  0  0
   -1.4344    0.4204    1.6827 H   0  0  0  0  0  0  0  0  0  0  0  0
   -1.1065    1.2146    0.1437 H   0  0  0  0  0  0  0  0  0  0  0  0
   -3.5204    1.2145    0.7411 H   0  0  0  0  0  0  0  0  0  0  0  0
   -3.5500   -0.5363    0.7157 H   0  0  0  0  0  0  0  0  0  0  0  0
   -2.8738    1.2530   -1.6774 H   0  0  0  0  0  0  0  0  0  0  0  0
   -2.9523   -0.4994   -1.7313 H   0  0  0  0  0  0  0  0  0  0  0  0
   -5.0759    0.5014   -2.5925 H   0  0  0  0  0  0  0  0  0  0  0  0
   -5.3179    1.3437   -1.0544 H   0  0  0  0  0  0  0  0  0  0  0  0
   -5.3937   -0.4219   -1.1163 H   0  0  0  0  0  0  0  0  0  0  0  0
    1.5586   -0.9297    2.2531 H   0  0  0  0  0  0  0  0  0  0  0  0
    0.5520   -2.8239    0.2433 H   0  0  0  0  0  0  0  0  0  0  0  0
  1 15  1  0  0  0  0
  1  3  1  0  0  0  0
  2  1  1  0  0  0  0
  2  3  1  0  0  0  0
  3  4  1  0  0  0  0
  3 19  1  0  0  0  0
  5 22  1  0  0  0  0
  5  6  1  0  0  0  0
  5  4  1  0  0  0  0
  6 13  1  0  0  0  0
  7 23  1  6  0  0  0
  7  8  1  0  0  0  0
  7  6  1  0  0  0  0
  7  9  1  0  0  0  0
  8 24  1  0  0  0  0
  9 26  1  0  0  0  0
 10  9  1  0  0  0  0
 10 29  1  0  0  0  0
 10 28  1  0  0  0  0
 11 10  1  0  0  0  0
 12 11  1  0  0  0  0
 12 34  1  0  0  0  0
 12 33  1  0  0  0  0
 13 35  1  0  0  0  0
 14 36  1  0  0  0  0
 14  6  1  0  0  0  0
 16  1  1  0  0  0  0
 17  2  1  0  0  0  0
 18  2  1  0  0  0  0
 20  4  1  0  0  0  0
 21  5  1  0  0  0  0
 25  8  1  0  0  0  0
 27  9  1  0  0  0  0
 30 11  1  0  0  0  0
 31 11  1  0  0  0  0
 32 12  1  0  0  0  0
M  END
