omegapdb_1m5f_13.xyz
 OpenBabel12161914463D

 25 25  0  0  1  0  0  0  0  0999 V2000
   -1.9235   -3.2333   -1.9474 O   0  0  0  0  0  0  0  0  0  0  0  0
   -1.0741   -2.6181   -1.1226 C   0  0  0  0  0  0  0  0  0  0  0  0
   -0.0061   -3.0899   -0.8238 O   0  0  0  0  0  0  0  0  0  0  0  0
   -1.5536   -1.2998   -0.5993 C   0  0  0  0  0  0  0  0  0  0  0  0
   -2.7316   -0.8614   -0.9573 N   0  0  0  0  0  0  0  0  0  0  0  0
   -2.8872    0.3439   -0.3282 O   0  0  0  0  0  0  0  0  0  0  0  0
   -1.7952    0.6157    0.4109 C   0  0  0  0  0  0  0  0  0  0  0  0
   -0.8840   -0.3933    0.2737 C   0  0  0  0  0  0  0  0  0  0  0  0
    0.5135   -0.4513    0.8035 C   0  0  0  0  0  0  0  0  0  0  0  0
    1.4214    0.5463    0.0770 C   0  0  2  0  0  0  0  0  0  0  0  0
    1.6147    0.1216   -1.3035 N   0  0  0  0  0  0  0  0  0  0  0  0
    2.7571    0.6833    0.7885 C   0  0  0  0  0  0  0  0  0  0  0  0
    2.9707    0.4106    1.9450 O   0  0  0  0  0  0  0  0  0  0  0  0
    3.7019    1.2228   -0.0101 O   0  0  0  0  0  0  0  0  0  0  0  0
   -1.8021    1.9064    1.1549 C   0  0  0  0  0  0  0  0  0  0  0  0
   -2.7222   -2.6877   -2.0552 H   0  0  0  0  0  0  0  0  0  0  0  0
    0.5341   -0.2393    1.8783 H   0  0  0  0  0  0  0  0  0  0  0  0
    0.9042   -1.4615    0.6472 H   0  0  0  0  0  0  0  0  0  0  0  0
    0.9591    1.5489    0.1616 H   0  0  0  0  0  0  0  0  0  0  0  0
    2.2053    0.7846   -1.7933 H   0  0  0  0  0  0  0  0  0  0  0  0
    0.7139    0.1082   -1.7728 H   0  0  0  0  0  0  0  0  0  0  0  0
    4.5008    1.3009    0.5369 H   0  0  0  0  0  0  0  0  0  0  0  0
   -1.0114    1.9253    1.9105 H   0  0  0  0  0  0  0  0  0  0  0  0
   -1.6436    2.7507    0.4730 H   0  0  0  0  0  0  0  0  0  0  0  0
   -2.7620    2.0665    1.6522 H   0  0  0  0  0  0  0  0  0  0  0  0
  1  2  1  0  0  0  0
  2  3  2  0  0  0  0
  2  4  1  0  0  0  0
  4  8  1  0  0  0  0
  5  4  2  0  0  0  0
  5  6  1  0  0  0  0
  6  7  1  0  0  0  0
  7 15  1  0  0  0  0
  8  7  2  0  0  0  0
  8  9  1  0  0  0  0
  9 17  1  0  0  0  0
 10 19  1  6  0  0  0
 10 12  1  0  0  0  0
 10  9  1  0  0  0  0
 11 10  1  0  0  0  0
 12 13  2  0  0  0  0
 14 22  1  0  0  0  0
 14 12  1  0  0  0  0
 15 25  1  0  0  0  0
 15 23  1  0  0  0  0
 16  1  1  0  0  0  0
 18  9  1  0  0  0  0
 20 11  1  0  0  0  0
 21 11  1  0  0  0  0
 24 15  1  0  0  0  0
M  END
