omegapdb_1z1r_28.xyz
 OpenBabel12161914463D

 66 68  0  0  1  0  0  0  0  0999 V2000
    0.6025   -0.3559    0.7005 C   0  0  2  0  0  0  0  0  0  0  0  0
    0.9701   -1.4775   -0.2881 C   0  0  0  0  0  0  0  0  0  0  0  0
   -0.2050   -2.3832   -0.5784 C   0  0  0  0  0  0  0  0  0  0  0  0
   -0.6661   -3.2819    0.3891 C   0  0  0  0  0  0  0  0  0  0  0  0
   -1.8801   -3.9321    0.2370 C   0  0  0  0  0  0  0  0  0  0  0  0
   -2.6745   -3.6536   -0.8737 C   0  0  0  0  0  0  0  0  0  0  0  0
   -2.1714   -2.8743   -1.9151 C   0  0  0  0  0  0  0  0  0  0  0  0
   -0.9432   -2.2466   -1.7575 C   0  0  0  0  0  0  0  0  0  0  0  0
   -3.9548   -4.1341   -0.8768 O   0  0  0  0  0  0  0  0  0  0  0  0
   -4.9774   -3.1672   -1.1116 C   0  0  0  0  0  0  0  0  0  0  0  0
   -5.1524   -2.1305    0.0014 C   0  0  0  0  0  0  0  0  0  0  0  0
   -4.0645   -1.0624    0.1743 C   0  0  0  0  0  0  0  0  0  0  0  0
   -3.9058   -0.1606   -1.0410 C   0  0  0  0  0  0  0  0  0  0  0  0
   -4.4278   -0.4126   -2.1172 O   0  0  0  0  0  0  0  0  0  0  0  0
   -3.1179    0.9655   -0.9381 N   0  0  0  0  0  0  0  0  0  0  0  0
   -2.6176    1.6489    0.2454 C   0  0  2  0  0  0  0  0  0  0  0  0
   -1.5705    0.7997    0.9941 C   0  0  0  0  0  0  0  0  0  0  0  0
   -1.6994    0.5106    2.1735 O   0  0  0  0  0  0  0  0  0  0  0  0
   -0.5273    0.4082    0.2133 N   0  0  0  0  0  0  0  0  0  0  0  0
   -3.6715    2.1709    1.2216 C   0  0  0  0  0  0  0  0  0  0  0  0
   -3.1183    3.3488    2.0194 C   0  0  0  0  0  0  0  0  0  0  0  0
   -2.1042    3.9465    1.6990 O   0  0  0  0  0  0  0  0  0  0  0  0
   -3.8566    3.7088    3.1030 N   0  0  0  0  0  0  0  0  0  0  0  0
    1.8026    0.5403    1.0286 C   0  0  2  0  0  0  0  0  0  0  0  0
    1.4201    1.3998    2.0819 O   0  0  0  0  0  0  0  0  0  0  0  0
    2.2998    1.3560   -0.1685 C   0  0  0  0  0  0  0  0  0  0  0  0
    3.3695    2.2629    0.2802 N   0  0  0  0  0  0  0  0  0  0  0  0
    4.5004    2.7357   -0.8602 S   0  0  0  0  0  0  0  0  0  0  0  0
    3.9313    2.6213   -2.1940 O   0  0  0  0  0  0  0  0  0  0  0  0
    5.0214    3.9996   -0.3666 O   0  0  0  0  0  0  0  0  0  0  0  0
    5.7538    1.4940   -0.7000 C   0  0  0  0  0  0  0  0  0  0  0  0
    6.5351    1.4763    0.4498 C   0  0  0  0  0  0  0  0  0  0  0  0
    7.5186    0.5006    0.5774 C   0  0  0  0  0  0  0  0  0  0  0  0
    7.7128   -0.4360   -0.4358 C   0  0  0  0  0  0  0  0  0  0  0  0
    6.9233   -0.4021   -1.5837 C   0  0  0  0  0  0  0  0  0  0  0  0
    5.9372    0.5684   -1.7220 C   0  0  0  0  0  0  0  0  0  0  0  0
    0.2811   -0.7849    1.6546 H   0  0  0  0  0  0  0  0  0  0  0  0
    1.8002   -2.0525    0.1410 H   0  0  0  0  0  0  0  0  0  0  0  0
    1.3286   -1.0381   -1.2292 H   0  0  0  0  0  0  0  0  0  0  0  0
   -0.0859   -3.4449    1.2958 H   0  0  0  0  0  0  0  0  0  0  0  0
   -2.2752   -4.5920    1.0054 H   0  0  0  0  0  0  0  0  0  0  0  0
   -2.7611   -2.7145   -2.8146 H   0  0  0  0  0  0  0  0  0  0  0  0
   -0.5809   -1.5958   -2.5515 H   0  0  0  0  0  0  0  0  0  0  0  0
   -4.8189   -2.6498   -2.0628 H   0  0  0  0  0  0  0  0  0  0  0  0
   -5.8945   -3.7590   -1.1884 H   0  0  0  0  0  0  0  0  0  0  0  0
   -5.2729   -2.6662    0.9511 H   0  0  0  0  0  0  0  0  0  0  0  0
   -6.1044   -1.6212   -0.2003 H   0  0  0  0  0  0  0  0  0  0  0  0
   -4.3158   -0.4579    1.0511 H   0  0  0  0  0  0  0  0  0  0  0  0
   -3.0915   -1.5113    0.4079 H   0  0  0  0  0  0  0  0  0  0  0  0
   -3.1893    1.5246   -1.7770 H   0  0  0  0  0  0  0  0  0  0  0  0
   -2.0936    2.5343   -0.1388 H   0  0  0  0  0  0  0  0  0  0  0  0
   -0.6685    0.4799   -0.7855 H   0  0  0  0  0  0  0  0  0  0  0  0
   -4.5556    2.5053    0.6669 H   0  0  0  0  0  0  0  0  0  0  0  0
   -3.9846    1.3912    1.9208 H   0  0  0  0  0  0  0  0  0  0  0  0
   -4.6640    3.1935    3.4125 H   0  0  0  0  0  0  0  0  0  0  0  0
   -3.5075    4.4585    3.6801 H   0  0  0  0  0  0  0  0  0  0  0  0
    2.6288   -0.1122    1.3593 H   0  0  0  0  0  0  0  0  0  0  0  0
    2.2315    1.8268    2.3864 H   0  0  0  0  0  0  0  0  0  0  0  0
    2.7007    0.6894   -0.9336 H   0  0  0  0  0  0  0  0  0  0  0  0
    1.4792    1.9341   -0.6077 H   0  0  0  0  0  0  0  0  0  0  0  0
    3.0314    3.1147    0.7244 H   0  0  0  0  0  0  0  0  0  0  0  0
    6.3760    2.2231    1.2233 H   0  0  0  0  0  0  0  0  0  0  0  0
    8.1390    0.4723    1.4689 H   0  0  0  0  0  0  0  0  0  0  0  0
    8.4842   -1.1952   -0.3314 H   0  0  0  0  0  0  0  0  0  0  0  0
    7.0783   -1.1307   -2.3746 H   0  0  0  0  0  0  0  0  0  0  0  0
    5.3127    0.6257   -2.6093 H   0  0  0  0  0  0  0  0  0  0  0  0
  1 24  1  0  0  0  0
  1 37  1  1  0  0  0
  2 38  1  0  0  0  0
  2  1  1  0  0  0  0
  3  2  1  0  0  0  0
  3  4  2  0  0  0  0
  4 40  1  0  0  0  0
  5  4  1  0  0  0  0
  5 41  1  0  0  0  0
  6  5  2  0  0  0  0
  7  8  2  0  0  0  0
  7  6  1  0  0  0  0
  8  3  1  0  0  0  0
  9  6  1  0  0  0  0
 10  9  1  0  0  0  0
 10 11  1  0  0  0  0
 11 12  1  0  0  0  0
 11 46  1  0  0  0  0
 12 49  1  0  0  0  0
 12 48  1  0  0  0  0
 13 15  1  0  0  0  0
 13 12  1  0  0  0  0
 14 13  2  0  0  0  0
 15 16  1  0  0  0  0
 16 51  1  6  0  0  0
 16 17  1  0  0  0  0
 16 20  1  0  0  0  0
 17 18  2  0  0  0  0
 19  1  1  0  0  0  0
 19 17  1  0  0  0  0
 20 54  1  0  0  0  0
 20 21  1  0  0  0  0
 21 23  1  0  0  0  0
 22 21  2  0  0  0  0
 23 55  1  0  0  0  0
 23 56  1  0  0  0  0
 24 57  1  1  0  0  0
 24 25  1  0  0  0  0
 25 58  1  0  0  0  0
 26 27  1  0  0  0  0
 26 24  1  0  0  0  0
 27 61  1  0  0  0  0
 28 31  1  0  0  0  0
 28 30  2  0  0  0  0
 28 27  1  0  0  0  0
 29 28  2  0  0  0  0
 31 32  2  0  0  0  0
 32 33  1  0  0  0  0
 32 62  1  0  0  0  0
 33 63  1  0  0  0  0
 34 64  1  0  0  0  0
 34 33  2  0  0  0  0
 35 34  1  0  0  0  0
 36 35  2  0  0  0  0
 36 31  1  0  0  0  0
 39  2  1  0  0  0  0
 42  7  1  0  0  0  0
 43  8  1  0  0  0  0
 44 10  1  0  0  0  0
 45 10  1  0  0  0  0
 47 11  1  0  0  0  0
 50 15  1  0  0  0  0
 52 19  1  0  0  0  0
 53 20  1  0  0  0  0
 59 26  1  0  0  0  0
 60 26  1  0  0  0  0
 65 35  1  0  0  0  0
 66 36  1  0  0  0  0
M  END
