omegapdb_1v2k_04.xyz
 OpenBabel12161914463D

 61 65  0  0  0  0  0  0  0  0999 V2000
    8.3960    1.5439   -2.0518 N   0  0  0  0  0  0  0  0  0  0  0  0
    8.0232    1.2901   -0.7964 C   0  0  0  0  0  0  0  0  0  0  0  0
    6.7690    0.8383   -0.4163 C   0  0  0  0  0  0  0  0  0  0  0  0
    5.7875    0.6329   -1.4028 C   0  0  0  0  0  0  0  0  0  0  0  0
    6.1715    0.8972   -2.7297 C   0  0  0  0  0  0  0  0  0  0  0  0
    7.4613    1.3370   -2.9816 C   0  0  0  0  0  0  0  0  0  0  0  0
    4.5282    0.1944   -1.0858 N   0  0  0  0  0  0  0  0  0  0  0  0
    4.2627   -0.4133    0.2073 C   0  0  0  0  0  0  0  0  0  0  0  0
    3.0111   -1.2831    0.1306 C   0  0  0  0  0  0  0  0  0  0  0  0
    1.7713   -0.4218   -0.1871 C   0  0  0  0  0  0  0  0  0  0  0  0
    2.1281    0.7098   -1.1658 C   0  0  0  0  0  0  0  0  0  0  0  0
    3.3923    0.4018   -1.9701 C   0  0  0  0  0  0  0  0  0  0  0  0
    1.2193    0.1631    1.1182 C   0  0  0  0  0  0  0  0  0  0  0  0
    1.4842    1.3042    1.4674 O   0  0  0  0  0  0  0  0  0  0  0  0
    0.4685   -0.6646    1.9168 N   0  0  0  0  0  0  0  0  0  0  0  0
   -0.1998   -0.0960    3.0817 C   0  0  0  0  0  0  0  0  0  0  0  0
   -1.6969    0.0239    2.8164 C   0  0  0  0  0  0  0  0  0  0  0  0
   -2.2241   -1.2876    2.4146 N   0  0  0  0  0  0  0  0  0  0  0  0
   -1.5423   -1.9105    1.2725 C   0  0  0  0  0  0  0  0  0  0  0  0
   -0.0438   -1.9811    1.5643 C   0  0  0  0  0  0  0  0  0  0  0  0
   -3.8744   -1.5076    2.5234 S   0  0  0  0  0  0  0  0  0  0  0  0
   -4.2834   -0.9427    3.7972 O   0  0  0  0  0  0  0  0  0  0  0  0
   -4.1326   -2.8955    2.1839 O   0  0  0  0  0  0  0  0  0  0  0  0
   -4.5572   -0.4889    1.2337 C   0  0  0  0  0  0  0  0  0  0  0  0
   -4.9015   -1.0454    0.0319 C   0  0  0  0  0  0  0  0  0  0  0  0
   -5.4232   -0.2208   -1.0042 C   0  0  0  0  0  0  0  0  0  0  0  0
   -5.5691    1.1718   -0.7764 C   0  0  0  0  0  0  0  0  0  0  0  0
   -5.2076    1.7057    0.4912 C   0  0  0  0  0  0  0  0  0  0  0  0
   -4.7229    0.8945    1.4819 C   0  0  0  0  0  0  0  0  0  0  0  0
   -6.0818    1.9979   -1.8143 C   0  0  0  0  0  0  0  0  0  0  0  0
   -6.4448    1.4431   -3.0102 C   0  0  0  0  0  0  0  0  0  0  0  0
   -6.3159    0.0532   -3.2488 C   0  0  0  0  0  0  0  0  0  0  0  0
   -5.8118   -0.7510   -2.2619 C   0  0  0  0  0  0  0  0  0  0  0  0
   -7.0852    2.4498   -4.2806 Cl  0  0  0  0  0  0  0  0  0  0  0  0
    8.7820    1.4551   -0.0314 H   0  0  0  0  0  0  0  0  0  0  0  0
    6.5573    0.6700    0.6343 H   0  0  0  0  0  0  0  0  0  0  0  0
    5.4890    0.7367   -3.5582 H   0  0  0  0  0  0  0  0  0  0  0  0
    7.7603    1.5419   -4.0091 H   0  0  0  0  0  0  0  0  0  0  0  0
    5.1217   -1.0321    0.4882 H   0  0  0  0  0  0  0  0  0  0  0  0
    4.1424    0.3573    0.9849 H   0  0  0  0  0  0  0  0  0  0  0  0
    2.8798   -1.8239    1.0742 H   0  0  0  0  0  0  0  0  0  0  0  0
    3.1505   -2.0399   -0.6509 H   0  0  0  0  0  0  0  0  0  0  0  0
    1.0027   -1.0588   -0.6367 H   0  0  0  0  0  0  0  0  0  0  0  0
    1.2961    0.8939   -1.8539 H   0  0  0  0  0  0  0  0  0  0  0  0
    2.2810    1.6255   -0.5887 H   0  0  0  0  0  0  0  0  0  0  0  0
    3.2287   -0.4785   -2.6126 H   0  0  0  0  0  0  0  0  0  0  0  0
    3.6144    1.2478   -2.6263 H   0  0  0  0  0  0  0  0  0  0  0  0
    0.2434    0.8779    3.2911 H   0  0  0  0  0  0  0  0  0  0  0  0
   -0.0375   -0.7626    3.9386 H   0  0  0  0  0  0  0  0  0  0  0  0
   -1.8775    0.7694    2.0269 H   0  0  0  0  0  0  0  0  0  0  0  0
   -2.2187    0.3397    3.7239 H   0  0  0  0  0  0  0  0  0  0  0  0
   -1.7343   -1.3362    0.3533 H   0  0  0  0  0  0  0  0  0  0  0  0
   -1.9485   -2.9158    1.1413 H   0  0  0  0  0  0  0  0  0  0  0  0
    0.1130   -2.6468    2.4243 H   0  0  0  0  0  0  0  0  0  0  0  0
    0.4976   -2.4105    0.7194 H   0  0  0  0  0  0  0  0  0  0  0  0
   -4.7924   -2.1123   -0.1315 H   0  0  0  0  0  0  0  0  0  0  0  0
   -5.3277    2.7704    0.6656 H   0  0  0  0  0  0  0  0  0  0  0  0
   -4.4732    1.2940    2.4618 H   0  0  0  0  0  0  0  0  0  0  0  0
   -6.1839    3.0672   -1.6510 H   0  0  0  0  0  0  0  0  0  0  0  0
   -6.6172   -0.3514   -4.2101 H   0  0  0  0  0  0  0  0  0  0  0  0
   -5.7048   -1.8204   -2.4329 H   0  0  0  0  0  0  0  0  0  0  0  0
  1  2  2  0  0  0  0
  2  3  1  0  0  0  0
  2 35  1  0  0  0  0
  3 36  1  0  0  0  0
  4  7  1  0  0  0  0
  4  3  2  0  0  0  0
  5  4  1  0  0  0  0
  6  5  2  0  0  0  0
  6  1  1  0  0  0  0
  7  8  1  0  0  0  0
  8 39  1  0  0  0  0
  8 40  1  0  0  0  0
  9  8  1  0  0  0  0
  9 41  1  0  0  0  0
 10  9  1  0  0  0  0
 10 13  1  0  0  0  0
 11 45  1  0  0  0  0
 11 10  1  0  0  0  0
 12 11  1  0  0  0  0
 12  7  1  0  0  0  0
 13 14  2  0  0  0  0
 13 15  1  0  0  0  0
 15 16  1  0  0  0  0
 16 48  1  0  0  0  0
 16 49  1  0  0  0  0
 17 16  1  0  0  0  0
 17 51  1  0  0  0  0
 18 21  1  0  0  0  0
 18 17  1  0  0  0  0
 19 20  1  0  0  0  0
 19 18  1  0  0  0  0
 20 15  1  0  0  0  0
 20 54  1  0  0  0  0
 21 22  2  0  0  0  0
 23 21  2  0  0  0  0
 24 29  1  0  0  0  0
 24 21  1  0  0  0  0
 25 24  2  0  0  0  0
 26 27  1  0  0  0  0
 26 25  1  0  0  0  0
 27 28  1  0  0  0  0
 28 57  1  0  0  0  0
 28 29  2  0  0  0  0
 29 58  1  0  0  0  0
 30 59  1  0  0  0  0
 30 27  2  0  0  0  0
 31 30  1  0  0  0  0
 32 31  2  0  0  0  0
 32 33  1  0  0  0  0
 33 26  2  0  0  0  0
 34 31  1  0  0  0  0
 37  5  1  0  0  0  0
 38  6  1  0  0  0  0
 42  9  1  0  0  0  0
 43 10  1  0  0  0  0
 44 11  1  0  0  0  0
 46 12  1  0  0  0  0
 47 12  1  0  0  0  0
 50 17  1  0  0  0  0
 52 19  1  0  0  0  0
 53 19  1  0  0  0  0
 55 20  1  0  0  0  0
 56 25  1  0  0  0  0
 60 32  1  0  0  0  0
 61 33  1  0  0  0  0
M  END
