omegapdb_2f7p_01.xyz
 OpenBabel12161914463D

 34 35  0  0  1  0  0  0  0  0999 V2000
   -1.3084   -1.0472   -0.5252 C   0  0  1  0  0  0  0  0  0  0  0  0
   -0.0723   -0.3995   -0.0897 N   0  0  0  0  0  0  0  0  0  0  0  0
    1.0456   -0.4984   -1.0342 C   0  0  0  0  0  0  0  0  0  0  0  0
    2.3061    0.0782   -0.4311 C   0  0  0  0  0  0  0  0  0  0  0  0
    3.4105   -0.7276   -0.1587 C   0  0  0  0  0  0  0  0  0  0  0  0
    4.5625   -0.1887    0.4090 C   0  0  0  0  0  0  0  0  0  0  0  0
    4.6219    1.1691    0.7058 C   0  0  0  0  0  0  0  0  0  0  0  0
    3.5224    1.9803    0.4385 C   0  0  0  0  0  0  0  0  0  0  0  0
    2.3698    1.4366   -0.1188 C   0  0  0  0  0  0  0  0  0  0  0  0
   -2.1742   -1.3992    0.7193 C   0  0  1  0  0  0  0  0  0  0  0  0
   -1.3904   -1.6787    1.8524 O   0  0  0  0  0  0  0  0  0  0  0  0
   -3.1088   -0.1678    0.9509 C   0  0  1  0  0  0  0  0  0  0  0  0
   -2.8944    0.3921    2.2269 O   0  0  0  0  0  0  0  0  0  0  0  0
   -2.7598    0.8407   -0.1804 C   0  0  1  0  0  0  0  0  0  0  0  0
   -1.8022    1.7584    0.3166 O   0  0  0  0  0  0  0  0  0  0  0  0
   -2.1572   -0.0196   -1.3024 C   0  0  2  0  0  0  0  0  0  0  0  0
   -3.3802   -0.7461   -2.4280 S   0  0  0  0  0  0  0  0  0  0  0  0
   -1.1051   -1.9389   -1.1356 H   0  0  0  0  0  0  0  0  0  0  0  0
    0.1830   -0.8057    0.8102 H   0  0  0  0  0  0  0  0  0  0  0  0
    1.2216   -1.5387   -1.3505 H   0  0  0  0  0  0  0  0  0  0  0  0
    0.7800    0.0749   -1.9332 H   0  0  0  0  0  0  0  0  0  0  0  0
    3.3683   -1.7906   -0.3911 H   0  0  0  0  0  0  0  0  0  0  0  0
    5.4149   -0.8316    0.6167 H   0  0  0  0  0  0  0  0  0  0  0  0
    5.5210    1.5947    1.1449 H   0  0  0  0  0  0  0  0  0  0  0  0
    3.5617    3.0425    0.6666 H   0  0  0  0  0  0  0  0  0  0  0  0
    1.5083    2.0744   -0.3176 H   0  0  0  0  0  0  0  0  0  0  0  0
   -2.7824   -2.2842    0.4894 H   0  0  0  0  0  0  0  0  0  0  0  0
   -1.6953   -1.0409    2.5250 H   0  0  0  0  0  0  0  0  0  0  0  0
   -4.1595   -0.4737    0.8962 H   0  0  0  0  0  0  0  0  0  0  0  0
   -2.4020    1.2169    2.0537 H   0  0  0  0  0  0  0  0  0  0  0  0
   -3.6285    1.4168   -0.5073 H   0  0  0  0  0  0  0  0  0  0  0  0
   -0.9399    1.2892    0.2846 H   0  0  0  0  0  0  0  0  0  0  0  0
   -1.5159    0.5944   -1.9415 H   0  0  0  0  0  0  0  0  0  0  0  0
   -4.1209   -1.3821   -1.5054 H   0  0  0  0  0  0  0  0  0  0  0  0
  1 16  1  6  0  0  0
  1  2  1  0  0  0  0
  2 19  1  0  0  0  0
  3  4  1  0  0  0  0
  3  2  1  0  0  0  0
  4  5  2  0  0  0  0
  4  9  1  0  0  0  0
  5  6  1  0  0  0  0
  6 23  1  0  0  0  0
  6  7  2  0  0  0  0
  7 24  1  0  0  0  0
  8 25  1  0  0  0  0
  8  7  1  0  0  0  0
  9  8  2  0  0  0  0
 10  1  1  6  0  0  0
 10 12  1  0  0  0  0
 10 11  1  0  0  0  0
 11 28  1  0  0  0  0
 12 14  1  6  0  0  0
 12 13  1  0  0  0  0
 14 16  1  6  0  0  0
 14 15  1  0  0  0  0
 16 33  1  6  0  0  0
 17 34  1  0  0  0  0
 17 16  1  0  0  0  0
 18  1  1  0  0  0  0
 20  3  1  0  0  0  0
 21  3  1  0  0  0  0
 22  5  1  0  0  0  0
 26  9  1  0  0  0  0
 27 10  1  0  0  0  0
 29 12  1  0  0  0  0
 30 13  1  0  0  0  0
 31 14  1  0  0  0  0
 32 15  1  0  0  0  0
M  END
