omegapdb_1z1r_12.xyz
 OpenBabel12161914463D

 66 68  0  0  1  0  0  0  0  0999 V2000
    0.7848   -0.7350   -0.6254 C   0  0  2  0  0  0  0  0  0  0  0  0
    0.3482   -1.5447   -1.8705 C   0  0  0  0  0  0  0  0  0  0  0  0
   -0.8807   -2.3872   -1.6231 C   0  0  0  0  0  0  0  0  0  0  0  0
   -0.9796   -3.2197   -0.5060 C   0  0  0  0  0  0  0  0  0  0  0  0
   -2.1895   -3.8067   -0.1593 C   0  0  0  0  0  0  0  0  0  0  0  0
   -3.3067   -3.6107   -0.9678 C   0  0  0  0  0  0  0  0  0  0  0  0
   -3.1905   -2.9011   -2.1590 C   0  0  0  0  0  0  0  0  0  0  0  0
   -1.9910   -2.2728   -2.4638 C   0  0  0  0  0  0  0  0  0  0  0  0
   -4.5379   -4.0944   -0.6146 O   0  0  0  0  0  0  0  0  0  0  0  0
   -5.0884   -3.5746    0.5919 C   0  0  0  0  0  0  0  0  0  0  0  0
   -5.6043   -2.1412    0.4773 C   0  0  0  0  0  0  0  0  0  0  0  0
   -4.5658   -1.0202    0.4036 C   0  0  0  0  0  0  0  0  0  0  0  0
   -3.7687   -0.8725    1.6911 C   0  0  0  0  0  0  0  0  0  0  0  0
   -4.0446   -1.4835    2.7104 O   0  0  0  0  0  0  0  0  0  0  0  0
   -2.7035    0.0020    1.6866 N   0  0  0  0  0  0  0  0  0  0  0  0
   -2.3633    0.9951    0.6791 C   0  0  2  0  0  0  0  0  0  0  0  0
   -1.3087    0.5233   -0.3361 C   0  0  0  0  0  0  0  0  0  0  0  0
   -1.3327    0.9206   -1.4928 O   0  0  0  0  0  0  0  0  0  0  0  0
   -0.3345   -0.2689    0.1768 N   0  0  0  0  0  0  0  0  0  0  0  0
   -1.8481    2.2602    1.4034 C   0  0  0  0  0  0  0  0  0  0  0  0
   -1.3299    3.3438    0.4724 C   0  0  0  0  0  0  0  0  0  0  0  0
   -0.1388    3.4758    0.2194 O   0  0  0  0  0  0  0  0  0  0  0  0
   -2.2708    4.1520   -0.0802 N   0  0  0  0  0  0  0  0  0  0  0  0
    1.6699    0.4451   -1.0345 C   0  0  2  0  0  0  0  0  0  0  0  0
    2.8125   -0.0874   -1.6699 O   0  0  0  0  0  0  0  0  0  0  0  0
    2.0767    1.3078    0.1612 C   0  0  0  0  0  0  0  0  0  0  0  0
    2.9472    2.3936   -0.3208 N   0  0  0  0  0  0  0  0  0  0  0  0
    3.9716    3.0941    0.8079 S   0  0  0  0  0  0  0  0  0  0  0  0
    3.4132    2.9444    2.1433 O   0  0  0  0  0  0  0  0  0  0  0  0
    4.3019    4.4016    0.2680 O   0  0  0  0  0  0  0  0  0  0  0  0
    5.3906    2.0445    0.6956 C   0  0  0  0  0  0  0  0  0  0  0  0
    6.2012    2.1369   -0.4305 C   0  0  0  0  0  0  0  0  0  0  0  0
    7.2930    1.2813   -0.5412 C   0  0  0  0  0  0  0  0  0  0  0  0
    7.5632    0.3562    0.4658 C   0  0  0  0  0  0  0  0  0  0  0  0
    6.7442    0.2834    1.5911 C   0  0  0  0  0  0  0  0  0  0  0  0
    5.6481    1.1310    1.7125 C   0  0  0  0  0  0  0  0  0  0  0  0
    1.3786   -1.3801    0.0311 H   0  0  0  0  0  0  0  0  0  0  0  0
    0.1257   -0.8444   -2.6811 H   0  0  0  0  0  0  0  0  0  0  0  0
    1.1971   -2.1565   -2.1993 H   0  0  0  0  0  0  0  0  0  0  0  0
   -0.1189   -3.3764    0.1429 H   0  0  0  0  0  0  0  0  0  0  0  0
   -2.2772   -4.4059    0.7431 H   0  0  0  0  0  0  0  0  0  0  0  0
   -4.0712   -2.7915   -2.7878 H   0  0  0  0  0  0  0  0  0  0  0  0
   -1.9275   -1.6435   -3.3488 H   0  0  0  0  0  0  0  0  0  0  0  0
   -4.3702   -3.6460    1.4192 H   0  0  0  0  0  0  0  0  0  0  0  0
   -5.9284   -4.2392    0.8164 H   0  0  0  0  0  0  0  0  0  0  0  0
   -6.2551   -2.0853   -0.4027 H   0  0  0  0  0  0  0  0  0  0  0  0
   -6.2218   -1.9564    1.3646 H   0  0  0  0  0  0  0  0  0  0  0  0
   -5.1024   -0.0765    0.2284 H   0  0  0  0  0  0  0  0  0  0  0  0
   -3.8747   -1.1352   -0.4384 H   0  0  0  0  0  0  0  0  0  0  0  0
   -2.3734    0.1709    2.6295 H   0  0  0  0  0  0  0  0  0  0  0  0
   -3.2398    1.2543    0.0751 H   0  0  0  0  0  0  0  0  0  0  0  0
   -0.5645   -0.7529    1.0327 H   0  0  0  0  0  0  0  0  0  0  0  0
   -2.6561    2.6446    2.0374 H   0  0  0  0  0  0  0  0  0  0  0  0
   -1.0156    1.9684    2.0513 H   0  0  0  0  0  0  0  0  0  0  0  0
   -1.9497    4.9365   -0.6277 H   0  0  0  0  0  0  0  0  0  0  0  0
   -3.2266    4.1535    0.2351 H   0  0  0  0  0  0  0  0  0  0  0  0
    1.0878    1.0698   -1.7334 H   0  0  0  0  0  0  0  0  0  0  0  0
    3.4437    0.6463   -1.7317 H   0  0  0  0  0  0  0  0  0  0  0  0
    2.6367    0.7077    0.8873 H   0  0  0  0  0  0  0  0  0  0  0  0
    1.1972    1.7441    0.6453 H   0  0  0  0  0  0  0  0  0  0  0  0
    2.4307    3.1537   -0.7645 H   0  0  0  0  0  0  0  0  0  0  0  0
    5.9776    2.8740   -1.1984 H   0  0  0  0  0  0  0  0  0  0  0  0
    7.9362    1.3362   -1.4153 H   0  0  0  0  0  0  0  0  0  0  0  0
    8.4180   -0.3096    0.3744 H   0  0  0  0  0  0  0  0  0  0  0  0
    6.9605   -0.4342    2.3776 H   0  0  0  0  0  0  0  0  0  0  0  0
    4.9946    1.1008    2.5809 H   0  0  0  0  0  0  0  0  0  0  0  0
  1 37  1  1  0  0  0
  1 19  1  0  0  0  0
  2  3  1  0  0  0  0
  2  1  1  0  0  0  0
  3  4  2  0  0  0  0
  4  5  1  0  0  0  0
  4 40  1  0  0  0  0
  5 41  1  0  0  0  0
  6  9  1  0  0  0  0
  6  5  2  0  0  0  0
  7  6  1  0  0  0  0
  8  7  2  0  0  0  0
  8  3  1  0  0  0  0
  9 10  1  0  0  0  0
 10 45  1  0  0  0  0
 10 44  1  0  0  0  0
 11 10  1  0  0  0  0
 11 47  1  0  0  0  0
 12 11  1  0  0  0  0
 12 13  1  0  0  0  0
 13 14  2  0  0  0  0
 15 13  1  0  0  0  0
 15 50  1  0  0  0  0
 16 51  1  6  0  0  0
 16 20  1  0  0  0  0
 16 15  1  0  0  0  0
 17 19  1  0  0  0  0
 17 16  1  0  0  0  0
 18 17  2  0  0  0  0
 19 52  1  0  0  0  0
 20 53  1  0  0  0  0
 20 54  1  0  0  0  0
 21 20  1  0  0  0  0
 22 21  2  0  0  0  0
 23 56  1  0  0  0  0
 23 21  1  0  0  0  0
 24 57  1  6  0  0  0
 24  1  1  0  0  0  0
 24 26  1  0  0  0  0
 25 24  1  0  0  0  0
 26 60  1  0  0  0  0
 26 59  1  0  0  0  0
 27 26  1  0  0  0  0
 27 28  1  0  0  0  0
 28 29  2  0  0  0  0
 30 28  2  0  0  0  0
 31 28  1  0  0  0  0
 31 36  2  0  0  0  0
 32 31  1  0  0  0  0
 33 32  2  0  0  0  0
 33 34  1  0  0  0  0
 34 35  2  0  0  0  0
 35 36  1  0  0  0  0
 35 65  1  0  0  0  0
 36 66  1  0  0  0  0
 38  2  1  0  0  0  0
 39  2  1  0  0  0  0
 42  7  1  0  0  0  0
 43  8  1  0  0  0  0
 46 11  1  0  0  0  0
 48 12  1  0  0  0  0
 49 12  1  0  0  0  0
 55 23  1  0  0  0  0
 58 25  1  0  0  0  0
 61 27  1  0  0  0  0
 62 32  1  0  0  0  0
 63 33  1  0  0  0  0
 64 34  1  0  0  0  0
M  END
