omegapdb_1v2k_13.xyz
 OpenBabel12161914463D

 61 65  0  0  0  0  0  0  0  0999 V2000
    9.0260    1.2504    1.4459 N   0  0  0  0  0  0  0  0  0  0  0  0
    8.3209    2.0104    0.6057 C   0  0  0  0  0  0  0  0  0  0  0  0
    7.0930    1.6655    0.0630 C   0  0  0  0  0  0  0  0  0  0  0  0
    6.5153    0.4312    0.4105 C   0  0  0  0  0  0  0  0  0  0  0  0
    7.2457   -0.3727    1.3040 C   0  0  0  0  0  0  0  0  0  0  0  0
    8.4700    0.0814    1.7700 C   0  0  0  0  0  0  0  0  0  0  0  0
    5.3073    0.0334   -0.0984 N   0  0  0  0  0  0  0  0  0  0  0  0
    4.7627    0.6339   -1.3043 C   0  0  0  0  0  0  0  0  0  0  0  0
    3.9194   -0.3813   -2.0738 C   0  0  0  0  0  0  0  0  0  0  0  0
    2.7133   -0.8582   -1.2489 C   0  0  0  0  0  0  0  0  0  0  0  0
    3.0355   -0.8090    0.2633 C   0  0  0  0  0  0  0  0  0  0  0  0
    4.5246   -1.0092    0.5442 C   0  0  0  0  0  0  0  0  0  0  0  0
    1.5055    0.0346   -1.5302 C   0  0  0  0  0  0  0  0  0  0  0  0
    1.6527    1.1870   -1.9154 O   0  0  0  0  0  0  0  0  0  0  0  0
    0.2514   -0.4602   -1.3103 N   0  0  0  0  0  0  0  0  0  0  0  0
   -0.8536    0.4806   -1.5301 C   0  0  0  0  0  0  0  0  0  0  0  0
   -2.1785   -0.2042   -1.2319 C   0  0  0  0  0  0  0  0  0  0  0  0
   -2.1938   -0.8313    0.0915 N   0  0  0  0  0  0  0  0  0  0  0  0
   -1.0253   -1.6839    0.3914 C   0  0  0  0  0  0  0  0  0  0  0  0
   -0.0808   -1.7902   -0.8097 C   0  0  0  0  0  0  0  0  0  0  0  0
   -2.6138    0.1694    1.3766 S   0  0  0  0  0  0  0  0  0  0  0  0
   -1.8732    1.4245    1.3005 O   0  0  0  0  0  0  0  0  0  0  0  0
   -2.5283   -0.6460    2.5785 O   0  0  0  0  0  0  0  0  0  0  0  0
   -4.3125    0.5265    1.0089 C   0  0  0  0  0  0  0  0  0  0  0  0
   -5.1827   -0.5024    0.7687 C   0  0  0  0  0  0  0  0  0  0  0  0
   -6.5360   -0.2147    0.4430 C   0  0  0  0  0  0  0  0  0  0  0  0
   -6.9666    1.1351    0.3883 C   0  0  0  0  0  0  0  0  0  0  0  0
   -6.0306    2.1720    0.6648 C   0  0  0  0  0  0  0  0  0  0  0  0
   -4.7287    1.8775    0.9693 C   0  0  0  0  0  0  0  0  0  0  0  0
   -8.3214    1.4199    0.0644 C   0  0  0  0  0  0  0  0  0  0  0  0
   -9.1886    0.3945   -0.1930 C   0  0  0  0  0  0  0  0  0  0  0  0
   -8.7710   -0.9584   -0.1481 C   0  0  0  0  0  0  0  0  0  0  0  0
   -7.4702   -1.2453    0.1643 C   0  0  0  0  0  0  0  0  0  0  0  0
  -10.8505    0.7364   -0.5888 Cl  0  0  0  0  0  0  0  0  0  0  0  0
    8.7697    2.9670    0.3377 H   0  0  0  0  0  0  0  0  0  0  0  0
    6.5844    2.3583   -0.5995 H   0  0  0  0  0  0  0  0  0  0  0  0
    6.8802   -1.3465    1.6143 H   0  0  0  0  0  0  0  0  0  0  0  0
    9.0409   -0.5420    2.4584 H   0  0  0  0  0  0  0  0  0  0  0  0
    5.5935    0.9621   -1.9365 H   0  0  0  0  0  0  0  0  0  0  0  0
    4.1561    1.5203   -1.0698 H   0  0  0  0  0  0  0  0  0  0  0  0
    4.5499   -1.2393   -2.3362 H   0  0  0  0  0  0  0  0  0  0  0  0
    3.5802    0.0680   -3.0111 H   0  0  0  0  0  0  0  0  0  0  0  0
    2.4804   -1.8846   -1.5502 H   0  0  0  0  0  0  0  0  0  0  0  0
    2.4621   -1.5639    0.8102 H   0  0  0  0  0  0  0  0  0  0  0  0
    2.7353    0.1665    0.6635 H   0  0  0  0  0  0  0  0  0  0  0  0
    4.6980   -0.9612    1.6244 H   0  0  0  0  0  0  0  0  0  0  0  0
    4.8480   -2.0075    0.2077 H   0  0  0  0  0  0  0  0  0  0  0  0
   -0.8271    0.8445   -2.5624 H   0  0  0  0  0  0  0  0  0  0  0  0
   -0.7303    1.3429   -0.8670 H   0  0  0  0  0  0  0  0  0  0  0  0
   -3.0087    0.5036   -1.3025 H   0  0  0  0  0  0  0  0  0  0  0  0
   -2.3739   -0.9930   -1.9685 H   0  0  0  0  0  0  0  0  0  0  0  0
   -0.4857   -1.2604    1.2474 H   0  0  0  0  0  0  0  0  0  0  0  0
   -1.3807   -2.6755    0.6866 H   0  0  0  0  0  0  0  0  0  0  0  0
    0.8241   -2.3063   -0.4917 H   0  0  0  0  0  0  0  0  0  0  0  0
   -0.5395   -2.4016   -1.5997 H   0  0  0  0  0  0  0  0  0  0  0  0
   -4.8503   -1.5353    0.8175 H   0  0  0  0  0  0  0  0  0  0  0  0
   -6.3643    3.2055    0.6269 H   0  0  0  0  0  0  0  0  0  0  0  0
   -4.0008    2.6539    1.1836 H   0  0  0  0  0  0  0  0  0  0  0  0
   -8.6615    2.4512    0.0225 H   0  0  0  0  0  0  0  0  0  0  0  0
   -9.4875   -1.7455   -0.3604 H   0  0  0  0  0  0  0  0  0  0  0  0
   -7.1298   -2.2782    0.2049 H   0  0  0  0  0  0  0  0  0  0  0  0
  1  6  1  0  0  0  0
  2  1  2  0  0  0  0
  3  4  2  0  0  0  0
  3  2  1  0  0  0  0
  4  5  1  0  0  0  0
  5 37  1  0  0  0  0
  5  6  2  0  0  0  0
  6 38  1  0  0  0  0
  7  4  1  0  0  0  0
  7 12  1  0  0  0  0
  8 40  1  0  0  0  0
  8  7  1  0  0  0  0
  9  8  1  0  0  0  0
  9 10  1  0  0  0  0
 10 11  1  0  0  0  0
 11 12  1  0  0  0  0
 11 45  1  0  0  0  0
 11 44  1  0  0  0  0
 12 46  1  0  0  0  0
 13 15  1  0  0  0  0
 13 10  1  0  0  0  0
 14 13  2  0  0  0  0
 15 20  1  0  0  0  0
 16 15  1  0  0  0  0
 16 17  1  0  0  0  0
 16 49  1  0  0  0  0
 17 18  1  0  0  0  0
 18 19  1  0  0  0  0
 18 21  1  0  0  0  0
 19 53  1  0  0  0  0
 19 52  1  0  0  0  0
 20 54  1  0  0  0  0
 20 19  1  0  0  0  0
 21 23  2  0  0  0  0
 22 21  2  0  0  0  0
 24 21  1  0  0  0  0
 25 56  1  0  0  0  0
 25 24  2  0  0  0  0
 26 25  1  0  0  0  0
 27 26  1  0  0  0  0
 27 28  1  0  0  0  0
 28 29  2  0  0  0  0
 29 24  1  0  0  0  0
 29 58  1  0  0  0  0
 30 27  2  0  0  0  0
 31 32  2  0  0  0  0
 31 30  1  0  0  0  0
 32 33  1  0  0  0  0
 33 61  1  0  0  0  0
 33 26  2  0  0  0  0
 34 31  1  0  0  0  0
 35  2  1  0  0  0  0
 36  3  1  0  0  0  0
 39  8  1  0  0  0  0
 41  9  1  0  0  0  0
 42  9  1  0  0  0  0
 43 10  1  0  0  0  0
 47 12  1  0  0  0  0
 48 16  1  0  0  0  0
 50 17  1  0  0  0  0
 51 17  1  0  0  0  0
 55 20  1  0  0  0  0
 57 28  1  0  0  0  0
 59 30  1  0  0  0  0
 60 32  1  0  0  0  0
M  END
