omegapdb_1gs5_13.xyz
 OpenBabel12161914463D

 24 23  0  0  1  0  0  0  0  0999 V2000
   -0.2890   -0.6318   -0.4936 C   0  0  2  0  0  0  0  0  0  0  0  0
   -1.1325   -1.5729    0.3741 C   0  0  0  0  0  0  0  0  0  0  0  0
   -2.2671   -1.8906    0.1206 O   0  0  0  0  0  0  0  0  0  0  0  0
   -0.4587   -2.0745    1.4254 O   0  0  0  0  0  0  0  0  0  0  0  0
    0.8884    0.0393    0.2291 C   0  0  0  0  0  0  0  0  0  0  0  0
    2.0950   -0.8916    0.3687 C   0  0  0  0  0  0  0  0  0  0  0  0
    3.3014   -0.2225    0.9808 C   0  0  0  0  0  0  0  0  0  0  0  0
    3.9698   -0.6547    1.8872 O   0  0  0  0  0  0  0  0  0  0  0  0
    3.5959    0.9468    0.3689 O   0  0  0  0  0  0  0  0  0  0  0  0
   -1.1664    0.3246   -1.1453 N   0  0  0  0  0  0  0  0  0  0  0  0
   -1.9612    1.1339   -0.3798 C   0  0  0  0  0  0  0  0  0  0  0  0
   -1.8258    1.1975    0.8316 O   0  0  0  0  0  0  0  0  0  0  0  0
   -2.9785    1.9621   -1.1366 C   0  0  0  0  0  0  0  0  0  0  0  0
    0.1128   -1.2619   -1.2972 H   0  0  0  0  0  0  0  0  0  0  0  0
   -1.0870   -2.6518    1.8899 H   0  0  0  0  0  0  0  0  0  0  0  0
    1.1799    0.9065   -0.3686 H   0  0  0  0  0  0  0  0  0  0  0  0
    0.5604    0.4159    1.2007 H   0  0  0  0  0  0  0  0  0  0  0  0
    2.4017   -1.2393   -0.6285 H   0  0  0  0  0  0  0  0  0  0  0  0
    1.8570   -1.7714    0.9653 H   0  0  0  0  0  0  0  0  0  0  0  0
    4.3883    1.2862    0.8169 H   0  0  0  0  0  0  0  0  0  0  0  0
   -1.4861    0.0970   -2.0743 H   0  0  0  0  0  0  0  0  0  0  0  0
   -3.8805    2.0489   -0.5268 H   0  0  0  0  0  0  0  0  0  0  0  0
   -2.5809    2.9701   -1.2973 H   0  0  0  0  0  0  0  0  0  0  0  0
   -3.2369    1.5345   -2.1111 H   0  0  0  0  0  0  0  0  0  0  0  0
  1 14  1  6  0  0  0
  1  5  1  0  0  0  0
  1  2  1  0  0  0  0
  2  4  1  0  0  0  0
  3  2  2  0  0  0  0
  4 15  1  0  0  0  0
  5  6  1  0  0  0  0
  5 17  1  0  0  0  0
  6 19  1  0  0  0  0
  6  7  1  0  0  0  0
  7  8  2  0  0  0  0
  9 20  1  0  0  0  0
  9  7  1  0  0  0  0
 10  1  1  0  0  0  0
 10 11  1  0  0  0  0
 11 12  2  0  0  0  0
 13 22  1  0  0  0  0
 13 11  1  0  0  0  0
 16  5  1  0  0  0  0
 18  6  1  0  0  0  0
 21 10  1  0  0  0  0
 23 13  1  0  0  0  0
 24 13  1  0  0  0  0
M  END
