omegapdb_2byh_11.xyz
 OpenBabel12161914463D

 40 42  0  0  0  0  0  0  0  0999 V2000
    6.8807    1.0830    1.6924 O   0  0  0  0  0  0  0  0  0  0  0  0
    5.7874    1.4554    2.0737 C   0  0  0  0  0  0  0  0  0  0  0  0
    5.6517    2.5864    3.0707 C   0  0  0  0  0  0  0  0  0  0  0  0
    4.5442    0.8016    1.5649 C   0  0  0  0  0  0  0  0  0  0  0  0
    3.2672    1.1882    1.9705 C   0  0  0  0  0  0  0  0  0  0  0  0
    2.1274    0.5635    1.4835 C   0  0  0  0  0  0  0  0  0  0  0  0
    2.2610   -0.4789    0.5627 C   0  0  0  0  0  0  0  0  0  0  0  0
    3.5401   -0.8750    0.1490 C   0  0  0  0  0  0  0  0  0  0  0  0
    4.6661   -0.2426    0.6436 C   0  0  0  0  0  0  0  0  0  0  0  0
    1.1615   -1.1750    0.0302 N   0  0  0  0  0  0  0  0  0  0  0  0
   -0.1789   -0.9241    0.2018 C   0  0  0  0  0  0  0  0  0  0  0  0
   -0.6023   -0.0001    0.8809 O   0  0  0  0  0  0  0  0  0  0  0  0
   -1.0565   -1.8933   -0.5082 C   0  0  0  0  0  0  0  0  0  0  0  0
   -0.7503   -3.2584   -0.7323 C   0  0  0  0  0  0  0  0  0  0  0  0
   -1.7720   -3.9237   -1.2303 N   0  0  0  0  0  0  0  0  0  0  0  0
   -2.7361   -3.0098   -1.3572 N   0  0  0  0  0  0  0  0  0  0  0  0
   -2.3793   -1.7606   -0.9633 C   0  0  0  0  0  0  0  0  0  0  0  0
   -3.2476   -0.5835   -1.1396 C   0  0  0  0  0  0  0  0  0  0  0  0
   -2.7023    0.7034   -1.1736 C   0  0  0  0  0  0  0  0  0  0  0  0
   -3.4841    1.8286   -1.3572 C   0  0  0  0  0  0  0  0  0  0  0  0
   -2.7602    3.4023   -1.3708 Cl  0  0  0  0  0  0  0  0  0  0  0  0
   -4.8663    1.7064   -1.5261 C   0  0  0  0  0  0  0  0  0  0  0  0
   -5.5966    2.8284   -1.7031 O   0  0  0  0  0  0  0  0  0  0  0  0
   -5.4329    0.4364   -1.5033 C   0  0  0  0  0  0  0  0  0  0  0  0
   -4.6373   -0.6870   -1.3221 C   0  0  0  0  0  0  0  0  0  0  0  0
   -5.1951   -1.9323   -1.3297 O   0  0  0  0  0  0  0  0  0  0  0  0
    5.0649    3.4081    2.6447 H   0  0  0  0  0  0  0  0  0  0  0  0
    6.6488    2.9445    3.3314 H   0  0  0  0  0  0  0  0  0  0  0  0
    5.1353    2.2438    3.9745 H   0  0  0  0  0  0  0  0  0  0  0  0
    3.1446    1.9986    2.6852 H   0  0  0  0  0  0  0  0  0  0  0  0
    1.1460    0.8760    1.8087 H   0  0  0  0  0  0  0  0  0  0  0  0
    3.6536   -1.6874   -0.5655 H   0  0  0  0  0  0  0  0  0  0  0  0
    5.6601   -0.5447    0.3278 H   0  0  0  0  0  0  0  0  0  0  0  0
    1.3923   -1.9050   -0.6264 H   0  0  0  0  0  0  0  0  0  0  0  0
    0.1580   -3.8032   -0.5005 H   0  0  0  0  0  0  0  0  0  0  0  0
   -3.6623   -3.2796   -1.6549 H   0  0  0  0  0  0  0  0  0  0  0  0
   -1.6386    0.8361   -1.0337 H   0  0  0  0  0  0  0  0  0  0  0  0
   -6.5250    2.5867   -1.8192 H   0  0  0  0  0  0  0  0  0  0  0  0
   -6.5113    0.3289   -1.6345 H   0  0  0  0  0  0  0  0  0  0  0  0
   -6.1561   -1.8421   -1.3790 H   0  0  0  0  0  0  0  0  0  0  0  0
  1  2  2  0  0  0  0
  2  3  1  0  0  0  0
  3 28  1  0  0  0  0
  3 29  1  0  0  0  0
  4  5  1  0  0  0  0
  4  2  1  0  0  0  0
  5 30  1  0  0  0  0
  6 31  1  0  0  0  0
  6  5  2  0  0  0  0
  7  6  1  0  0  0  0
  8  7  2  0  0  0  0
  8  9  1  0  0  0  0
  9  4  2  0  0  0  0
 10 11  1  0  0  0  0
 10  7  1  0  0  0  0
 11 12  2  0  0  0  0
 13 11  1  0  0  0  0
 14 13  1  0  0  0  0
 14 35  1  0  0  0  0
 15 14  2  0  0  0  0
 16 15  1  0  0  0  0
 16 17  1  0  0  0  0
 17 13  2  0  0  0  0
 18 17  1  0  0  0  0
 19 18  1  0  0  0  0
 19 37  1  0  0  0  0
 20 19  2  0  0  0  0
 21 20  1  0  0  0  0
 22 24  2  0  0  0  0
 22 20  1  0  0  0  0
 23 22  1  0  0  0  0
 24 25  1  0  0  0  0
 25 18  2  0  0  0  0
 26 25  1  0  0  0  0
 27  3  1  0  0  0  0
 32  8  1  0  0  0  0
 33  9  1  0  0  0  0
 34 10  1  0  0  0  0
 36 16  1  0  0  0  0
 38 23  1  0  0  0  0
 39 24  1  0  0  0  0
 40 26  1  0  0  0  0
M  END
