omegapdb_2byh_10.xyz
 OpenBabel12161914463D

 40 42  0  0  0  0  0  0  0  0999 V2000
    5.1494    2.9657    2.9696 O   0  0  0  0  0  0  0  0  0  0  0  0
    5.3778    2.1004    2.1461 C   0  0  0  0  0  0  0  0  0  0  0  0
    6.7912    1.8158    1.6846 C   0  0  0  0  0  0  0  0  0  0  0  0
    4.2626    1.2923    1.5674 C   0  0  0  0  0  0  0  0  0  0  0  0
    4.4687    0.3037    0.6048 C   0  0  0  0  0  0  0  0  0  0  0  0
    3.3997   -0.4206    0.1030 C   0  0  0  0  0  0  0  0  0  0  0  0
    2.0990   -0.1749    0.5588 C   0  0  0  0  0  0  0  0  0  0  0  0
    1.8816    0.8180    1.5193 C   0  0  0  0  0  0  0  0  0  0  0  0
    2.9604    1.5362    2.0087 C   0  0  0  0  0  0  0  0  0  0  0  0
    1.0637   -0.9554    0.0150 N   0  0  0  0  0  0  0  0  0  0  0  0
   -0.2800   -0.9370    0.3077 C   0  0  0  0  0  0  0  0  0  0  0  0
   -0.7639   -0.2200    1.1712 O   0  0  0  0  0  0  0  0  0  0  0  0
   -1.0723   -1.8830   -0.5258 C   0  0  0  0  0  0  0  0  0  0  0  0
   -0.6474   -3.1578   -0.9871 C   0  0  0  0  0  0  0  0  0  0  0  0
   -1.5567   -3.7479   -1.7414 N   0  0  0  0  0  0  0  0  0  0  0  0
   -2.5552   -2.8541   -1.8043 N   0  0  0  0  0  0  0  0  0  0  0  0
   -2.3490   -1.7298   -1.0720 C   0  0  0  0  0  0  0  0  0  0  0  0
   -3.3709   -0.6805   -0.9448 C   0  0  0  0  0  0  0  0  0  0  0  0
   -3.6369   -0.1176    0.3025 C   0  0  0  0  0  0  0  0  0  0  0  0
   -4.6734    0.7791    0.4773 C   0  0  0  0  0  0  0  0  0  0  0  0
   -4.9970    1.4532    2.0538 Cl  0  0  0  0  0  0  0  0  0  0  0  0
   -5.4838    1.1577   -0.5993 C   0  0  0  0  0  0  0  0  0  0  0  0
   -6.5090    2.0253   -0.4895 O   0  0  0  0  0  0  0  0  0  0  0  0
   -5.2206    0.6154   -1.8528 C   0  0  0  0  0  0  0  0  0  0  0  0
   -4.1769   -0.2750   -2.0284 C   0  0  0  0  0  0  0  0  0  0  0  0
   -4.0124   -0.7669   -3.2912 O   0  0  0  0  0  0  0  0  0  0  0  0
    6.8862    1.9839    0.6059 H   0  0  0  0  0  0  0  0  0  0  0  0
    7.0603    0.7716    1.8787 H   0  0  0  0  0  0  0  0  0  0  0  0
    7.4754    2.4766    2.2193 H   0  0  0  0  0  0  0  0  0  0  0  0
    5.4697    0.0922    0.2388 H   0  0  0  0  0  0  0  0  0  0  0  0
    3.5805   -1.1874   -0.6458 H   0  0  0  0  0  0  0  0  0  0  0  0
    0.8791    1.0154    1.8715 H   0  0  0  0  0  0  0  0  0  0  0  0
    2.8059    2.3098    2.7556 H   0  0  0  0  0  0  0  0  0  0  0  0
    1.3411   -1.5584   -0.7450 H   0  0  0  0  0  0  0  0  0  0  0  0
    0.2647   -3.6923   -0.7502 H   0  0  0  0  0  0  0  0  0  0  0  0
   -3.3990   -3.0961   -2.3063 H   0  0  0  0  0  0  0  0  0  0  0  0
   -3.0107   -0.3810    1.1428 H   0  0  0  0  0  0  0  0  0  0  0  0
   -6.5921    2.3099    0.4323 H   0  0  0  0  0  0  0  0  0  0  0  0
   -5.8364    0.8964   -2.7009 H   0  0  0  0  0  0  0  0  0  0  0  0
   -3.0733   -0.8830   -3.4840 H   0  0  0  0  0  0  0  0  0  0  0  0
  2  1  2  0  0  0  0
  3 28  1  0  0  0  0
  3  2  1  0  0  0  0
  3 29  1  0  0  0  0
  4  9  1  0  0  0  0
  4  2  1  0  0  0  0
  5  4  2  0  0  0  0
  6  7  2  0  0  0  0
  6  5  1  0  0  0  0
  7  8  1  0  0  0  0
  8 32  1  0  0  0  0
  8  9  2  0  0  0  0
  9 33  1  0  0  0  0
 10 11  1  0  0  0  0
 10  7  1  0  0  0  0
 11 12  2  0  0  0  0
 13 11  1  0  0  0  0
 14 35  1  0  0  0  0
 14 13  1  0  0  0  0
 15 14  2  0  0  0  0
 16 15  1  0  0  0  0
 16 17  1  0  0  0  0
 17 18  1  0  0  0  0
 17 13  2  0  0  0  0
 18 19  2  0  0  0  0
 19 20  1  0  0  0  0
 19 37  1  0  0  0  0
 20 21  1  0  0  0  0
 22 23  1  0  0  0  0
 22 20  2  0  0  0  0
 23 38  1  0  0  0  0
 24 22  1  0  0  0  0
 25 24  2  0  0  0  0
 25 18  1  0  0  0  0
 26 25  1  0  0  0  0
 27  3  1  0  0  0  0
 30  5  1  0  0  0  0
 31  6  1  0  0  0  0
 34 10  1  0  0  0  0
 36 16  1  0  0  0  0
 39 24  1  0  0  0  0
 40 26  1  0  0  0  0
M  END
