omegapdb_1gs5_16.xyz
 OpenBabel12161914463D

 24 23  0  0  1  0  0  0  0  0999 V2000
   -0.1819   -0.9649   -0.0662 C   0  0  2  0  0  0  0  0  0  0  0  0
   -1.3285   -1.8871    0.3423 C   0  0  0  0  0  0  0  0  0  0  0  0
   -2.4627   -1.8018   -0.0562 O   0  0  0  0  0  0  0  0  0  0  0  0
   -0.9183   -2.8597    1.1779 O   0  0  0  0  0  0  0  0  0  0  0  0
    0.7112   -0.5836    1.1234 C   0  0  0  0  0  0  0  0  0  0  0  0
    1.7900    0.4207    0.7397 C   0  0  0  0  0  0  0  0  0  0  0  0
    2.7897   -0.1225   -0.2664 C   0  0  0  0  0  0  0  0  0  0  0  0
    2.8177   -1.2591   -0.6596 O   0  0  0  0  0  0  0  0  0  0  0  0
    3.7058    0.7660   -0.7094 O   0  0  0  0  0  0  0  0  0  0  0  0
   -0.6863    0.1738   -0.8062 N   0  0  0  0  0  0  0  0  0  0  0  0
   -1.4818    1.1237   -0.2161 C   0  0  0  0  0  0  0  0  0  0  0  0
   -1.5502    1.2519    0.9945 O   0  0  0  0  0  0  0  0  0  0  0  0
   -2.2488    1.9944   -1.1911 C   0  0  0  0  0  0  0  0  0  0  0  0
    0.4342   -1.5376   -0.7689 H   0  0  0  0  0  0  0  0  0  0  0  0
   -1.7041   -3.3985    1.3682 H   0  0  0  0  0  0  0  0  0  0  0  0
    1.1711   -1.4995    1.5043 H   0  0  0  0  0  0  0  0  0  0  0  0
    0.0944   -0.1553    1.9156 H   0  0  0  0  0  0  0  0  0  0  0  0
    2.3489    0.7239    1.6358 H   0  0  0  0  0  0  0  0  0  0  0  0
    1.3393    1.3340    0.3327 H   0  0  0  0  0  0  0  0  0  0  0  0
    3.5435    1.6362   -0.3200 H   0  0  0  0  0  0  0  0  0  0  0  0
   -0.8292    0.0231   -1.7936 H   0  0  0  0  0  0  0  0  0  0  0  0
   -2.5368    2.9193   -0.6892 H   0  0  0  0  0  0  0  0  0  0  0  0
   -3.1613    1.4755   -1.5096 H   0  0  0  0  0  0  0  0  0  0  0  0
   -1.6557    2.2272   -2.0819 H   0  0  0  0  0  0  0  0  0  0  0  0
  1 14  1  6  0  0  0
  1  2  1  0  0  0  0
  1  5  1  0  0  0  0
  2  4  1  0  0  0  0
  3  2  2  0  0  0  0
  4 15  1  0  0  0  0
  5 16  1  0  0  0  0
  5 17  1  0  0  0  0
  6  5  1  0  0  0  0
  6 18  1  0  0  0  0
  7  6  1  0  0  0  0
  8  7  2  0  0  0  0
  9 20  1  0  0  0  0
  9  7  1  0  0  0  0
 10 11  1  0  0  0  0
 10  1  1  0  0  0  0
 11 12  2  0  0  0  0
 13 22  1  0  0  0  0
 13 11  1  0  0  0  0
 19  6  1  0  0  0  0
 21 10  1  0  0  0  0
 23 13  1  0  0  0  0
 24 13  1  0  0  0  0
M  END
