omegapdb_1gs5_11.xyz
 OpenBabel12161914463D

 24 23  0  0  1  0  0  0  0  0999 V2000
   -0.3425   -0.9791   -0.2740 C   0  0  2  0  0  0  0  0  0  0  0  0
   -1.4326   -1.7363    0.4878 C   0  0  0  0  0  0  0  0  0  0  0  0
   -2.5972   -1.7604    0.1795 O   0  0  0  0  0  0  0  0  0  0  0  0
   -0.9357   -2.4520    1.5134 O   0  0  0  0  0  0  0  0  0  0  0  0
    0.8119   -0.5094    0.6205 C   0  0  0  0  0  0  0  0  0  0  0  0
    1.9126    0.1664   -0.1975 C   0  0  0  0  0  0  0  0  0  0  0  0
    3.1263    0.5559    0.6136 C   0  0  0  0  0  0  0  0  0  0  0  0
    3.7372    1.5913    0.5145 O   0  0  0  0  0  0  0  0  0  0  0  0
    3.4971   -0.4170    1.4749 O   0  0  0  0  0  0  0  0  0  0  0  0
   -0.9369    0.0895   -1.0531 N   0  0  0  0  0  0  0  0  0  0  0  0
   -1.6668    1.0598   -0.4199 C   0  0  0  0  0  0  0  0  0  0  0  0
   -1.6836    1.1618    0.7960 O   0  0  0  0  0  0  0  0  0  0  0  0
   -2.4475    1.9879   -1.3257 C   0  0  0  0  0  0  0  0  0  0  0  0
    0.0534   -1.7050   -0.9977 H   0  0  0  0  0  0  0  0  0  0  0  0
   -1.6999   -2.8980    1.9149 H   0  0  0  0  0  0  0  0  0  0  0  0
    0.4192    0.1833    1.3686 H   0  0  0  0  0  0  0  0  0  0  0  0
    1.2183   -1.3739    1.1474 H   0  0  0  0  0  0  0  0  0  0  0  0
    2.2670   -0.5159   -0.9833 H   0  0  0  0  0  0  0  0  0  0  0  0
    1.5525    1.0692   -0.6949 H   0  0  0  0  0  0  0  0  0  0  0  0
    4.2844   -0.0788    1.9324 H   0  0  0  0  0  0  0  0  0  0  0  0
   -1.1648   -0.1079   -2.0156 H   0  0  0  0  0  0  0  0  0  0  0  0
   -3.4935    1.6627   -1.3567 H   0  0  0  0  0  0  0  0  0  0  0  0
   -2.0555    2.0130   -2.3468 H   0  0  0  0  0  0  0  0  0  0  0  0
   -2.4234    2.9930   -0.8984 H   0  0  0  0  0  0  0  0  0  0  0  0
  1 14  1  6  0  0  0
  1  2  1  0  0  0  0
  1  5  1  0  0  0  0
  2  4  1  0  0  0  0
  3  2  2  0  0  0  0
  4 15  1  0  0  0  0
  5 17  1  0  0  0  0
  5 16  1  0  0  0  0
  6  7  1  0  0  0  0
  6  5  1  0  0  0  0
  7  9  1  0  0  0  0
  8  7  2  0  0  0  0
  9 20  1  0  0  0  0
 10 11  1  0  0  0  0
 10  1  1  0  0  0  0
 11 12  2  0  0  0  0
 13 24  1  0  0  0  0
 13 11  1  0  0  0  0
 18  6  1  0  0  0  0
 19  6  1  0  0  0  0
 21 10  1  0  0  0  0
 22 13  1  0  0  0  0
 23 13  1  0  0  0  0
M  END
