omegapdb_1xom_09.xyz
 OpenBabel12161914463D

 50 52  0  0  1  0  0  0  0  0999 V2000
    5.8062    1.9839   -1.4915 O   0  0  0  0  0  0  0  0  0  0  0  0
    4.8554    2.1306   -0.5440 C   0  0  0  0  0  0  0  0  0  0  0  0
    5.0440    2.7922    0.4494 O   0  0  0  0  0  0  0  0  0  0  0  0
    3.5779    1.3867   -0.8953 C   0  0  1  0  0  0  0  0  0  0  0  0
    3.8958   -0.0769   -1.2790 C   0  0  0  0  0  0  0  0  0  0  0  0
    2.6865   -0.9799   -1.0573 C   0  0  0  0  0  0  0  0  0  0  0  0
    2.2972   -1.0703    0.4562 C   0  0  2  0  0  0  0  0  0  0  0  0
    2.6872    0.2553    1.1720 C   0  0  0  0  0  0  0  0  0  0  0  0
    2.5507    1.4625    0.2453 C   0  0  0  0  0  0  0  0  0  0  0  0
    3.1048   -2.1469    1.0829 C   0  0  0  0  0  0  0  0  0  0  0  0
    3.7468   -2.9797    1.5677 N   0  0  0  0  0  0  0  0  0  0  0  0
    0.8049   -1.4437    0.5798 C   0  0  0  0  0  0  0  0  0  0  0  0
    0.3940   -2.7132    0.1832 C   0  0  0  0  0  0  0  0  0  0  0  0
   -0.9527   -3.0769    0.1898 C   0  0  0  0  0  0  0  0  0  0  0  0
   -1.9236   -2.1714    0.5981 C   0  0  0  0  0  0  0  0  0  0  0  0
   -3.2587   -2.4219    0.6325 O   0  0  0  0  0  0  0  0  0  0  0  0
   -3.6979   -3.6855    0.1829 C   0  0  0  0  0  0  0  0  0  0  0  0
   -1.5203   -0.8925    1.0210 C   0  0  0  0  0  0  0  0  0  0  0  0
   -0.1780   -0.5448    1.0034 C   0  0  0  0  0  0  0  0  0  0  0  0
   -2.4473    0.0037    1.4875 O   0  0  0  0  0  0  0  0  0  0  0  0
   -3.1600    0.6859    0.4530 C   0  0  0  0  0  0  0  0  0  0  0  0
   -2.2819    1.6098   -0.3894 C   0  0  0  0  0  0  0  0  0  0  0  0
   -3.2904    2.5683   -1.0369 C   0  0  0  0  0  0  0  0  0  0  0  0
   -4.4324    2.7222    0.0040 C   0  0  0  0  0  0  0  0  0  0  0  0
   -4.1681    1.6429    1.0797 C   0  0  0  0  0  0  0  0  0  0  0  0
    6.5720    2.4958   -1.1817 H   0  0  0  0  0  0  0  0  0  0  0  0
    3.1681    1.8994   -1.7758 H   0  0  0  0  0  0  0  0  0  0  0  0
    4.7296   -0.4441   -0.6701 H   0  0  0  0  0  0  0  0  0  0  0  0
    4.2289   -0.1191   -2.3184 H   0  0  0  0  0  0  0  0  0  0  0  0
    2.8745   -1.9849   -1.4493 H   0  0  0  0  0  0  0  0  0  0  0  0
    1.8243   -0.5918   -1.6108 H   0  0  0  0  0  0  0  0  0  0  0  0
    3.7291    0.1891    1.5036 H   0  0  0  0  0  0  0  0  0  0  0  0
    2.0923    0.3681    2.0834 H   0  0  0  0  0  0  0  0  0  0  0  0
    2.6923    2.3919    0.8008 H   0  0  0  0  0  0  0  0  0  0  0  0
    1.5425    1.4819   -0.1861 H   0  0  0  0  0  0  0  0  0  0  0  0
    1.1283   -3.4494   -0.1391 H   0  0  0  0  0  0  0  0  0  0  0  0
   -1.2355   -4.0715   -0.1335 H   0  0  0  0  0  0  0  0  0  0  0  0
   -3.2781   -4.4967    0.7921 H   0  0  0  0  0  0  0  0  0  0  0  0
   -4.7839   -3.6818    0.2842 H   0  0  0  0  0  0  0  0  0  0  0  0
   -3.4286   -3.8502   -0.8688 H   0  0  0  0  0  0  0  0  0  0  0  0
    0.0672    0.4644    1.3221 H   0  0  0  0  0  0  0  0  0  0  0  0
   -3.6618   -0.0492   -0.1902 H   0  0  0  0  0  0  0  0  0  0  0  0
   -1.6165    2.1619    0.2877 H   0  0  0  0  0  0  0  0  0  0  0  0
   -1.6564    1.0683   -1.1097 H   0  0  0  0  0  0  0  0  0  0  0  0
   -3.6836    2.1311   -1.9621 H   0  0  0  0  0  0  0  0  0  0  0  0
   -2.8382    3.5279   -1.3076 H   0  0  0  0  0  0  0  0  0  0  0  0
   -4.4343    3.7202    0.4534 H   0  0  0  0  0  0  0  0  0  0  0  0
   -5.4080    2.5857   -0.4744 H   0  0  0  0  0  0  0  0  0  0  0  0
   -3.6919    2.0848    1.9630 H   0  0  0  0  0  0  0  0  0  0  0  0
   -5.0721    1.1270    1.4182 H   0  0  0  0  0  0  0  0  0  0  0  0
  1 26  1  0  0  0  0
  1  2  1  0  0  0  0
  2  3  2  0  0  0  0
  4 27  1  6  0  0  0
  4  2  1  0  0  0  0
  4  9  1  0  0  0  0
  5  6  1  0  0  0  0
  5  4  1  0  0  0  0
  5 28  1  0  0  0  0
  6  7  1  0  0  0  0
  7 12  1  0  0  0  0
  7 10  1  1  0  0  0
  7  8  1  0  0  0  0
  8 32  1  0  0  0  0
  8 33  1  0  0  0  0
  9 34  1  0  0  0  0
  9  8  1  0  0  0  0
 10 11  3  0  0  0  0
 12 19  2  0  0  0  0
 13 14  2  0  0  0  0
 13 12  1  0  0  0  0
 14 15  1  0  0  0  0
 15 16  1  0  0  0  0
 15 18  2  0  0  0  0
 17 39  1  0  0  0  0
 17 16  1  0  0  0  0
 17 38  1  0  0  0  0
 18 20  1  0  0  0  0
 19 18  1  0  0  0  0
 19 41  1  0  0  0  0
 21 25  1  0  0  0  0
 21 20  1  0  0  0  0
 22 43  1  0  0  0  0
 22 21  1  0  0  0  0
 23 22  1  0  0  0  0
 23 24  1  0  0  0  0
 24 47  1  0  0  0  0
 24 25  1  0  0  0  0
 25 50  1  0  0  0  0
 25 49  1  0  0  0  0
 29  5  1  0  0  0  0
 30  6  1  0  0  0  0
 31  6  1  0  0  0  0
 35  9  1  0  0  0  0
 36 13  1  0  0  0  0
 37 14  1  0  0  0  0
 40 17  1  0  0  0  0
 42 21  1  0  0  0  0
 44 22  1  0  0  0  0
 45 23  1  0  0  0  0
 46 23  1  0  0  0  0
 48 24  1  0  0  0  0
M  END
