omegapdb_1xom_20.xyz
 OpenBabel12161914463D

 50 52  0  0  1  0  0  0  0  0999 V2000
    7.0097    0.9494    0.2795 O   0  0  0  0  0  0  0  0  0  0  0  0
    6.0917    0.2692   -0.4493 C   0  0  0  0  0  0  0  0  0  0  0  0
    6.3154    0.0163   -1.6027 O   0  0  0  0  0  0  0  0  0  0  0  0
    4.7953   -0.0879    0.2755 C   0  0  1  0  0  0  0  0  0  0  0  0
    3.9918    1.2133    0.5208 C   0  0  0  0  0  0  0  0  0  0  0  0
    2.4984    0.9270    0.6577 C   0  0  0  0  0  0  0  0  0  0  0  0
    1.8921    0.3674   -0.6711 C   0  0  2  0  0  0  0  0  0  0  0  0
    2.9798   -0.4225   -1.4531 C   0  0  0  0  0  0  0  0  0  0  0  0
    3.9700   -1.1175   -0.5180 C   0  0  0  0  0  0  0  0  0  0  0  0
    1.5156    1.5248   -1.5229 C   0  0  0  0  0  0  0  0  0  0  0  0
    1.2471    2.4366   -2.1846 N   0  0  0  0  0  0  0  0  0  0  0  0
    0.6247   -0.4526   -0.3502 C   0  0  0  0  0  0  0  0  0  0  0  0
    0.5844   -1.8400   -0.4185 C   0  0  0  0  0  0  0  0  0  0  0  0
   -0.5618   -2.5499   -0.0584 C   0  0  0  0  0  0  0  0  0  0  0  0
   -1.7000   -1.8811    0.3707 C   0  0  0  0  0  0  0  0  0  0  0  0
   -2.8720   -2.4756    0.7124 O   0  0  0  0  0  0  0  0  0  0  0  0
   -2.9214   -3.8852    0.6891 C   0  0  0  0  0  0  0  0  0  0  0  0
   -1.6741   -0.4755    0.4530 C   0  0  0  0  0  0  0  0  0  0  0  0
   -0.5201    0.2134    0.1050 C   0  0  0  0  0  0  0  0  0  0  0  0
   -2.7687    0.1951    0.9281 O   0  0  0  0  0  0  0  0  0  0  0  0
   -3.8408    0.3653   -0.0113 C   0  0  0  0  0  0  0  0  0  0  0  0
   -5.0743    0.7187    0.8038 C   0  0  0  0  0  0  0  0  0  0  0  0
   -4.7877    2.1584    1.2526 C   0  0  0  0  0  0  0  0  0  0  0  0
   -3.9566    2.7890    0.1053 C   0  0  0  0  0  0  0  0  0  0  0  0
   -3.5827    1.6203   -0.8401 C   0  0  0  0  0  0  0  0  0  0  0  0
    6.6904    1.0773    1.1834 H   0  0  0  0  0  0  0  0  0  0  0  0
    5.0688   -0.5271    1.2453 H   0  0  0  0  0  0  0  0  0  0  0  0
    4.3642    1.7179    1.4195 H   0  0  0  0  0  0  0  0  0  0  0  0
    4.1544    1.9032   -0.3157 H   0  0  0  0  0  0  0  0  0  0  0  0
    2.3348    0.1870    1.4486 H   0  0  0  0  0  0  0  0  0  0  0  0
    1.9510    1.8263    0.9590 H   0  0  0  0  0  0  0  0  0  0  0  0
    2.4969   -1.1332   -2.1311 H   0  0  0  0  0  0  0  0  0  0  0  0
    3.5392    0.2712   -2.0885 H   0  0  0  0  0  0  0  0  0  0  0  0
    4.6428   -1.7599   -1.0923 H   0  0  0  0  0  0  0  0  0  0  0  0
    3.4234   -1.7581    0.1849 H   0  0  0  0  0  0  0  0  0  0  0  0
    1.4474   -2.4108   -0.7516 H   0  0  0  0  0  0  0  0  0  0  0  0
   -0.5558   -3.6317   -0.1277 H   0  0  0  0  0  0  0  0  0  0  0  0
   -2.1801   -4.3212    1.3712 H   0  0  0  0  0  0  0  0  0  0  0  0
   -3.9233   -4.1576    1.0218 H   0  0  0  0  0  0  0  0  0  0  0  0
   -2.7545   -4.2743   -0.3238 H   0  0  0  0  0  0  0  0  0  0  0  0
   -0.5247    1.2969    0.1946 H   0  0  0  0  0  0  0  0  0  0  0  0
   -3.9596   -0.5427   -0.6125 H   0  0  0  0  0  0  0  0  0  0  0  0
   -5.2288    0.0165    1.6284 H   0  0  0  0  0  0  0  0  0  0  0  0
   -5.9593    0.6794    0.1542 H   0  0  0  0  0  0  0  0  0  0  0  0
   -4.2033    2.1494    2.1758 H   0  0  0  0  0  0  0  0  0  0  0  0
   -5.7080    2.7130    1.4588 H   0  0  0  0  0  0  0  0  0  0  0  0
   -4.5231    3.5530   -0.4362 H   0  0  0  0  0  0  0  0  0  0  0  0
   -3.0633    3.2770    0.5051 H   0  0  0  0  0  0  0  0  0  0  0  0
   -2.5490    1.6611   -1.1987 H   0  0  0  0  0  0  0  0  0  0  0  0
   -4.2367    1.6109   -1.7201 H   0  0  0  0  0  0  0  0  0  0  0  0
  1 26  1  0  0  0  0
  2  4  1  0  0  0  0
  2  1  1  0  0  0  0
  3  2  2  0  0  0  0
  4  5  1  0  0  0  0
  4 27  1  1  0  0  0
  5  6  1  0  0  0  0
  5 28  1  0  0  0  0
  6 31  1  0  0  0  0
  6 30  1  0  0  0  0
  7 10  1  6  0  0  0
  7 12  1  0  0  0  0
  7  6  1  0  0  0  0
  8  7  1  0  0  0  0
  8  9  1  0  0  0  0
  9 35  1  0  0  0  0
  9  4  1  0  0  0  0
 11 10  3  0  0  0  0
 12 19  1  0  0  0  0
 13 12  2  0  0  0  0
 13 14  1  0  0  0  0
 14 15  2  0  0  0  0
 15 18  1  0  0  0  0
 15 16  1  0  0  0  0
 17 16  1  0  0  0  0
 17 39  1  0  0  0  0
 17 38  1  0  0  0  0
 18 20  1  0  0  0  0
 19 41  1  0  0  0  0
 19 18  2  0  0  0  0
 21 22  1  0  0  0  0
 21 20  1  0  0  0  0
 22 23  1  0  0  0  0
 22 43  1  0  0  0  0
 23 46  1  0  0  0  0
 23 45  1  0  0  0  0
 24 48  1  0  0  0  0
 24 23  1  0  0  0  0
 25 21  1  0  0  0  0
 25 24  1  0  0  0  0
 29  5  1  0  0  0  0
 32  8  1  0  0  0  0
 33  8  1  0  0  0  0
 34  9  1  0  0  0  0
 36 13  1  0  0  0  0
 37 14  1  0  0  0  0
 40 17  1  0  0  0  0
 42 21  1  0  0  0  0
 44 22  1  0  0  0  0
 47 24  1  0  0  0  0
 49 25  1  0  0  0  0
 50 25  1  0  0  0  0
M  END
