omegapdb_1z1r_09.xyz
 OpenBabel12161914463D

 66 68  0  0  1  0  0  0  0  0999 V2000
    0.6636   -1.4984    1.3705 C   0  0  2  0  0  0  0  0  0  0  0  0
    0.4476   -2.8581    0.6829 C   0  0  0  0  0  0  0  0  0  0  0  0
   -1.0119   -3.2199    0.4956 C   0  0  0  0  0  0  0  0  0  0  0  0
   -1.9392   -3.0620    1.5257 C   0  0  0  0  0  0  0  0  0  0  0  0
   -3.3006   -3.2057    1.2902 C   0  0  0  0  0  0  0  0  0  0  0  0
   -3.7482   -3.5551    0.0180 C   0  0  0  0  0  0  0  0  0  0  0  0
   -2.8292   -3.8538   -0.9837 C   0  0  0  0  0  0  0  0  0  0  0  0
   -1.4751   -3.6558   -0.7488 C   0  0  0  0  0  0  0  0  0  0  0  0
   -5.0807   -3.6176   -0.2917 O   0  0  0  0  0  0  0  0  0  0  0  0
   -5.8444   -2.4382   -0.0552 C   0  0  0  0  0  0  0  0  0  0  0  0
   -5.6419   -1.3417   -1.0996 C   0  0  0  0  0  0  0  0  0  0  0  0
   -4.2728   -0.6648   -1.1474 C   0  0  0  0  0  0  0  0  0  0  0  0
   -3.9523    0.1269    0.1161 C   0  0  0  0  0  0  0  0  0  0  0  0
   -4.7645    0.2633    1.0188 O   0  0  0  0  0  0  0  0  0  0  0  0
   -2.7138    0.7053    0.1955 N   0  0  0  0  0  0  0  0  0  0  0  0
   -1.6511    0.6971   -0.7889 C   0  0  2  0  0  0  0  0  0  0  0  0
   -0.4984   -0.2843   -0.4852 C   0  0  0  0  0  0  0  0  0  0  0  0
    0.0876   -0.8336   -1.4099 O   0  0  0  0  0  0  0  0  0  0  0  0
   -0.1829   -0.4468    0.8253 N   0  0  0  0  0  0  0  0  0  0  0  0
   -1.0944    2.1128   -1.0213 C   0  0  0  0  0  0  0  0  0  0  0  0
   -0.4697    2.7435    0.2178 C   0  0  0  0  0  0  0  0  0  0  0  0
   -0.7736    2.4222    1.3647 O   0  0  0  0  0  0  0  0  0  0  0  0
    0.4438    3.7109   -0.0266 N   0  0  0  0  0  0  0  0  0  0  0  0
    2.1407   -1.0870    1.4412 C   0  0  2  0  0  0  0  0  0  0  0  0
    2.2402   -0.0398    2.3841 O   0  0  0  0  0  0  0  0  0  0  0  0
    2.7328   -0.6357    0.1061 C   0  0  0  0  0  0  0  0  0  0  0  0
    4.1251   -0.2065    0.3407 N   0  0  0  0  0  0  0  0  0  0  0  0
    4.8953    0.5657   -0.9305 S   0  0  0  0  0  0  0  0  0  0  0  0
    6.2699    0.0926   -0.8908 O   0  0  0  0  0  0  0  0  0  0  0  0
    4.0774    0.4438   -2.1269 O   0  0  0  0  0  0  0  0  0  0  0  0
    4.8719    2.2644   -0.4301 C   0  0  0  0  0  0  0  0  0  0  0  0
    5.7585    2.6827    0.5570 C   0  0  0  0  0  0  0  0  0  0  0  0
    5.7371    4.0148    0.9573 C   0  0  0  0  0  0  0  0  0  0  0  0
    4.8462    4.9098    0.3693 C   0  0  0  0  0  0  0  0  0  0  0  0
    3.9700    4.4749   -0.6237 C   0  0  0  0  0  0  0  0  0  0  0  0
    3.9805    3.1456   -1.0319 C   0  0  0  0  0  0  0  0  0  0  0  0
    0.3618   -1.5907    2.4193 H   0  0  0  0  0  0  0  0  0  0  0  0
    0.9291   -2.8410   -0.2971 H   0  0  0  0  0  0  0  0  0  0  0  0
    0.9532   -3.6237    1.2879 H   0  0  0  0  0  0  0  0  0  0  0  0
   -1.6102   -2.7746    2.5231 H   0  0  0  0  0  0  0  0  0  0  0  0
   -4.0195   -3.0320    2.0879 H   0  0  0  0  0  0  0  0  0  0  0  0
   -3.2011   -4.1623   -1.9587 H   0  0  0  0  0  0  0  0  0  0  0  0
   -0.7688   -3.8094   -1.5617 H   0  0  0  0  0  0  0  0  0  0  0  0
   -6.8851   -2.7736   -0.0897 H   0  0  0  0  0  0  0  0  0  0  0  0
   -5.6481   -2.0323    0.9447 H   0  0  0  0  0  0  0  0  0  0  0  0
   -6.3917   -0.5677   -0.8933 H   0  0  0  0  0  0  0  0  0  0  0  0
   -5.8653   -1.7602   -2.0876 H   0  0  0  0  0  0  0  0  0  0  0  0
   -4.2707    0.0313   -1.9983 H   0  0  0  0  0  0  0  0  0  0  0  0
   -3.4666   -1.3830   -1.3393 H   0  0  0  0  0  0  0  0  0  0  0  0
   -2.5491    1.2645    1.0256 H   0  0  0  0  0  0  0  0  0  0  0  0
   -2.0503    0.3539   -1.7475 H   0  0  0  0  0  0  0  0  0  0  0  0
   -0.5152    0.2624    1.4655 H   0  0  0  0  0  0  0  0  0  0  0  0
   -1.9221    2.7570   -1.3413 H   0  0  0  0  0  0  0  0  0  0  0  0
   -0.3644    2.0834   -1.8392 H   0  0  0  0  0  0  0  0  0  0  0  0
    0.6518    4.0415   -0.9550 H   0  0  0  0  0  0  0  0  0  0  0  0
    0.8691    4.1737    0.7620 H   0  0  0  0  0  0  0  0  0  0  0  0
    2.7091   -1.9685    1.7957 H   0  0  0  0  0  0  0  0  0  0  0  0
    3.0819    0.4027    2.1881 H   0  0  0  0  0  0  0  0  0  0  0  0
    2.6812   -1.4256   -0.6491 H   0  0  0  0  0  0  0  0  0  0  0  0
    2.1754    0.2214   -0.2747 H   0  0  0  0  0  0  0  0  0  0  0  0
    4.7427   -0.9570    0.6522 H   0  0  0  0  0  0  0  0  0  0  0  0
    6.4601    1.9743    0.9892 H   0  0  0  0  0  0  0  0  0  0  0  0
    6.4226    4.3574    1.7280 H   0  0  0  0  0  0  0  0  0  0  0  0
    4.8401    5.9502    0.6842 H   0  0  0  0  0  0  0  0  0  0  0  0
    3.2814    5.1797   -1.0848 H   0  0  0  0  0  0  0  0  0  0  0  0
    3.3245    2.7764   -1.8153 H   0  0  0  0  0  0  0  0  0  0  0  0
  1 24  1  0  0  0  0
  1 37  1  1  0  0  0
  2 39  1  0  0  0  0
  2  1  1  0  0  0  0
  3  2  1  0  0  0  0
  3  4  2  0  0  0  0
  4 40  1  0  0  0  0
  5  4  1  0  0  0  0
  5 41  1  0  0  0  0
  6  5  2  0  0  0  0
  7  8  2  0  0  0  0
  7  6  1  0  0  0  0
  8  3  1  0  0  0  0
  9 10  1  0  0  0  0
  9  6  1  0  0  0  0
 10 45  1  0  0  0  0
 11 46  1  0  0  0  0
 11 10  1  0  0  0  0
 12 11  1  0  0  0  0
 12 13  1  0  0  0  0
 13 15  1  0  0  0  0
 13 14  2  0  0  0  0
 15 50  1  0  0  0  0
 16 51  1  6  0  0  0
 16 17  1  0  0  0  0
 16 15  1  0  0  0  0
 17 19  1  0  0  0  0
 18 17  2  0  0  0  0
 19  1  1  0  0  0  0
 19 52  1  0  0  0  0
 20 16  1  0  0  0  0
 20 21  1  0  0  0  0
 21 22  2  0  0  0  0
 23 21  1  0  0  0  0
 23 56  1  0  0  0  0
 24 57  1  1  0  0  0
 24 25  1  0  0  0  0
 26 27  1  0  0  0  0
 26 24  1  0  0  0  0
 27 61  1  0  0  0  0
 28 29  2  0  0  0  0
 28 31  1  0  0  0  0
 28 27  1  0  0  0  0
 30 28  2  0  0  0  0
 31 32  2  0  0  0  0
 32 33  1  0  0  0  0
 32 62  1  0  0  0  0
 33 63  1  0  0  0  0
 34 64  1  0  0  0  0
 34 33  2  0  0  0  0
 35 34  1  0  0  0  0
 36 35  2  0  0  0  0
 36 31  1  0  0  0  0
 38  2  1  0  0  0  0
 42  7  1  0  0  0  0
 43  8  1  0  0  0  0
 44 10  1  0  0  0  0
 47 11  1  0  0  0  0
 48 12  1  0  0  0  0
 49 12  1  0  0  0  0
 53 20  1  0  0  0  0
 54 20  1  0  0  0  0
 55 23  1  0  0  0  0
 58 25  1  0  0  0  0
 59 26  1  0  0  0  0
 60 26  1  0  0  0  0
 65 35  1  0  0  0  0
 66 36  1  0  0  0  0
M  END
