omegapdb_2f7p_13.xyz
 OpenBabel12161914463D

 34 35  0  0  1  0  0  0  0  0999 V2000
   -1.1293   -0.7056   -0.3022 C   0  0  1  0  0  0  0  0  0  0  0  0
    0.1667   -0.0623   -0.3471 N   0  0  0  0  0  0  0  0  0  0  0  0
    1.1701   -0.7247    0.4810 C   0  0  0  0  0  0  0  0  0  0  0  0
    2.5508   -0.1532    0.2463 C   0  0  0  0  0  0  0  0  0  0  0  0
    2.9131    0.3333   -1.0102 C   0  0  0  0  0  0  0  0  0  0  0  0
    4.1872    0.8455   -1.2275 C   0  0  0  0  0  0  0  0  0  0  0  0
    5.1163    0.8761   -0.1912 C   0  0  0  0  0  0  0  0  0  0  0  0
    4.7650    0.3845    1.0624 C   0  0  0  0  0  0  0  0  0  0  0  0
    3.4898   -0.1292    1.2767 C   0  0  0  0  0  0  0  0  0  0  0  0
   -1.8473   -0.6560    1.0741 C   0  0  1  0  0  0  0  0  0  0  0  0
   -1.5547    0.5221    1.8164 O   0  0  0  0  0  0  0  0  0  0  0  0
   -3.3403   -0.6607    0.7245 C   0  0  1  0  0  0  0  0  0  0  0  0
   -4.1431   -0.1617    1.7690 O   0  0  0  0  0  0  0  0  0  0  0  0
   -3.4030    0.2368   -0.5252 C   0  0  1  0  0  0  0  0  0  0  0  0
   -3.2935    1.5924   -0.0997 O   0  0  0  0  0  0  0  0  0  0  0  0
   -2.1347   -0.1008   -1.3265 C   0  0  2  0  0  0  0  0  0  0  0  0
   -2.4397   -1.3049   -2.6601 S   0  0  0  0  0  0  0  0  0  0  0  0
   -0.9790   -1.7618   -0.5526 H   0  0  0  0  0  0  0  0  0  0  0  0
    0.0596    0.8951   -0.0185 H   0  0  0  0  0  0  0  0  0  0  0  0
    0.9318   -0.6665    1.5574 H   0  0  0  0  0  0  0  0  0  0  0  0
    1.1628   -1.7925    0.2171 H   0  0  0  0  0  0  0  0  0  0  0  0
    2.1774    0.3133   -1.8101 H   0  0  0  0  0  0  0  0  0  0  0  0
    4.4522    1.2281   -2.2105 H   0  0  0  0  0  0  0  0  0  0  0  0
    6.1101    1.2820   -0.3614 H   0  0  0  0  0  0  0  0  0  0  0  0
    5.4859    0.4019    1.8767 H   0  0  0  0  0  0  0  0  0  0  0  0
    3.2236   -0.5166    2.2587 H   0  0  0  0  0  0  0  0  0  0  0  0
   -1.5731   -1.5025    1.7142 H   0  0  0  0  0  0  0  0  0  0  0  0
   -1.8711    1.2675    1.2720 H   0  0  0  0  0  0  0  0  0  0  0  0
   -3.6782   -1.6714    0.4703 H   0  0  0  0  0  0  0  0  0  0  0  0
   -3.5175    0.2348    2.3993 H   0  0  0  0  0  0  0  0  0  0  0  0
   -4.3303    0.0855   -1.0925 H   0  0  0  0  0  0  0  0  0  0  0  0
   -4.0072    1.7034    0.5497 H   0  0  0  0  0  0  0  0  0  0  0  0
   -1.7166    0.8121   -1.7520 H   0  0  0  0  0  0  0  0  0  0  0  0
   -3.0039   -0.4439   -3.5232 H   0  0  0  0  0  0  0  0  0  0  0  0
  1 16  1  6  0  0  0
  2  1  1  0  0  0  0
  2 19  1  0  0  0  0
  2  3  1  0  0  0  0
  3 20  1  0  0  0  0
  4  3  1  0  0  0  0
  4  9  2  0  0  0  0
  5  4  1  0  0  0  0
  6  5  2  0  0  0  0
  6  7  1  0  0  0  0
  7  8  2  0  0  0  0
  8  9  1  0  0  0  0
  8 25  1  0  0  0  0
  9 26  1  0  0  0  0
 10  1  1  6  0  0  0
 10 27  1  0  0  0  0
 10 11  1  0  0  0  0
 12 14  1  6  0  0  0
 12 10  1  0  0  0  0
 12 13  1  0  0  0  0
 13 30  1  0  0  0  0
 14 16  1  6  0  0  0
 14 15  1  0  0  0  0
 15 32  1  0  0  0  0
 16 33  1  6  0  0  0
 17 16  1  0  0  0  0
 18  1  1  0  0  0  0
 21  3  1  0  0  0  0
 22  5  1  0  0  0  0
 23  6  1  0  0  0  0
 24  7  1  0  0  0  0
 28 11  1  0  0  0  0
 29 12  1  0  0  0  0
 31 14  1  0  0  0  0
 34 17  1  0  0  0  0
M  END
