omegapdb_2byh_07.xyz
 OpenBabel12161914463D

 40 42  0  0  0  0  0  0  0  0999 V2000
    5.9039    1.2490    2.1929 O   0  0  0  0  0  0  0  0  0  0  0  0
    4.9004    1.8356    1.8349 C   0  0  0  0  0  0  0  0  0  0  0  0
    4.8243    3.3468    1.8802 C   0  0  0  0  0  0  0  0  0  0  0  0
    3.7123    1.0737    1.3419 C   0  0  0  0  0  0  0  0  0  0  0  0
    2.5605    1.6979    0.8627 C   0  0  0  0  0  0  0  0  0  0  0  0
    1.4915    0.9427    0.4060 C   0  0  0  0  0  0  0  0  0  0  0  0
    1.5486   -0.4537    0.4284 C   0  0  0  0  0  0  0  0  0  0  0  0
    2.6926   -1.0891    0.9159 C   0  0  0  0  0  0  0  0  0  0  0  0
    3.7580   -0.3225    1.3602 C   0  0  0  0  0  0  0  0  0  0  0  0
    0.4343   -1.1616   -0.0580 N   0  0  0  0  0  0  0  0  0  0  0  0
    0.1345   -2.4953    0.0701 C   0  0  0  0  0  0  0  0  0  0  0  0
    0.8689   -3.3159    0.6022 O   0  0  0  0  0  0  0  0  0  0  0  0
   -1.1566   -2.9014   -0.5252 C   0  0  0  0  0  0  0  0  0  0  0  0
   -1.4788   -4.2379   -0.8557 C   0  0  0  0  0  0  0  0  0  0  0  0
   -2.6373   -4.3319   -1.4805 N   0  0  0  0  0  0  0  0  0  0  0  0
   -3.0720   -3.0623   -1.5613 N   0  0  0  0  0  0  0  0  0  0  0  0
   -2.2517   -2.1569   -0.9774 C   0  0  0  0  0  0  0  0  0  0  0  0
   -2.6335   -0.7447   -0.8056 C   0  0  0  0  0  0  0  0  0  0  0  0
   -2.4697   -0.1185    0.4341 C   0  0  0  0  0  0  0  0  0  0  0  0
   -2.9130    1.1731    0.6670 C   0  0  0  0  0  0  0  0  0  0  0  0
   -2.6871    1.9221    2.2140 Cl  0  0  0  0  0  0  0  0  0  0  0  0
   -3.5424    1.8877   -0.3598 C   0  0  0  0  0  0  0  0  0  0  0  0
   -3.9648    3.1452   -0.1023 O   0  0  0  0  0  0  0  0  0  0  0  0
   -3.7152    1.2802   -1.5979 C   0  0  0  0  0  0  0  0  0  0  0  0
   -3.2584   -0.0074   -1.8277 C   0  0  0  0  0  0  0  0  0  0  0  0
   -3.4868   -0.5221   -3.0717 O   0  0  0  0  0  0  0  0  0  0  0  0
    4.0045    3.6751    2.5287 H   0  0  0  0  0  0  0  0  0  0  0  0
    5.7703    3.7318    2.2635 H   0  0  0  0  0  0  0  0  0  0  0  0
    4.6386    3.7585    0.8822 H   0  0  0  0  0  0  0  0  0  0  0  0
    2.4889    2.7818    0.8390 H   0  0  0  0  0  0  0  0  0  0  0  0
    0.6018    1.4450    0.0353 H   0  0  0  0  0  0  0  0  0  0  0  0
    2.7319   -2.1703    0.9461 H   0  0  0  0  0  0  0  0  0  0  0  0
    4.6553   -0.8046    1.7373 H   0  0  0  0  0  0  0  0  0  0  0  0
   -0.2444   -0.6061   -0.5592 H   0  0  0  0  0  0  0  0  0  0  0  0
   -0.8825   -5.1182   -0.6524 H   0  0  0  0  0  0  0  0  0  0  0  0
   -3.9791   -2.8815   -1.9678 H   0  0  0  0  0  0  0  0  0  0  0  0
   -2.0002   -0.6525    1.2533 H   0  0  0  0  0  0  0  0  0  0  0  0
   -4.3776    3.5050   -0.8980 H   0  0  0  0  0  0  0  0  0  0  0  0
   -4.2156    1.8042   -2.4103 H   0  0  0  0  0  0  0  0  0  0  0  0
   -2.7540   -1.1009   -3.3194 H   0  0  0  0  0  0  0  0  0  0  0  0
  2  3  1  0  0  0  0
  2  1  2  0  0  0  0
  3 28  1  0  0  0  0
  3 27  1  0  0  0  0
  4  9  1  0  0  0  0
  4  2  1  0  0  0  0
  5  4  2  0  0  0  0
  6  7  2  0  0  0  0
  6  5  1  0  0  0  0
  7  8  1  0  0  0  0
  8 32  1  0  0  0  0
  8  9  2  0  0  0  0
  9 33  1  0  0  0  0
 10 11  1  0  0  0  0
 10  7  1  0  0  0  0
 11 12  2  0  0  0  0
 13 11  1  0  0  0  0
 14 35  1  0  0  0  0
 14 13  1  0  0  0  0
 15 14  2  0  0  0  0
 16 15  1  0  0  0  0
 16 17  1  0  0  0  0
 17 18  1  0  0  0  0
 17 13  2  0  0  0  0
 18 19  2  0  0  0  0
 19 20  1  0  0  0  0
 19 37  1  0  0  0  0
 20 21  1  0  0  0  0
 22 23  1  0  0  0  0
 22 20  2  0  0  0  0
 24 22  1  0  0  0  0
 25 24  2  0  0  0  0
 25 18  1  0  0  0  0
 26 25  1  0  0  0  0
 29  3  1  0  0  0  0
 30  5  1  0  0  0  0
 31  6  1  0  0  0  0
 34 10  1  0  0  0  0
 36 16  1  0  0  0  0
 38 23  1  0  0  0  0
 39 24  1  0  0  0  0
 40 26  1  0  0  0  0
M  END
