omegapdb_2byh_19.xyz
 OpenBabel12161914463D

 40 42  0  0  0  0  0  0  0  0999 V2000
    4.6584    2.7933   -0.1631 O   0  0  0  0  0  0  0  0  0  0  0  0
    4.8188    1.7559    0.4515 C   0  0  0  0  0  0  0  0  0  0  0  0
    6.2074    1.2258    0.7348 C   0  0  0  0  0  0  0  0  0  0  0  0
    3.6400    0.9710    0.9316 C   0  0  0  0  0  0  0  0  0  0  0  0
    2.3647    1.4177    0.5782 C   0  0  0  0  0  0  0  0  0  0  0  0
    1.2329    0.7165    0.9575 C   0  0  0  0  0  0  0  0  0  0  0  0
    1.3727   -0.4544    1.7091 C   0  0  0  0  0  0  0  0  0  0  0  0
    2.6360   -0.8884    2.1047 C   0  0  0  0  0  0  0  0  0  0  0  0
    3.7629   -0.1835    1.7068 C   0  0  0  0  0  0  0  0  0  0  0  0
    0.2304   -1.2170    2.0729 N   0  0  0  0  0  0  0  0  0  0  0  0
   -0.8751   -1.4725    1.2791 C   0  0  0  0  0  0  0  0  0  0  0  0
   -1.9791   -1.5767    1.7889 O   0  0  0  0  0  0  0  0  0  0  0  0
   -0.6535   -1.6358   -0.1792 C   0  0  0  0  0  0  0  0  0  0  0  0
    0.4079   -2.2825   -0.8552 C   0  0  0  0  0  0  0  0  0  0  0  0
    0.1983   -2.3455   -2.1595 N   0  0  0  0  0  0  0  0  0  0  0  0
   -0.9933   -1.7477   -2.3290 N   0  0  0  0  0  0  0  0  0  0  0  0
   -1.5476   -1.2739   -1.1872 C   0  0  0  0  0  0  0  0  0  0  0  0
   -2.7951   -0.5023   -1.1584 C   0  0  0  0  0  0  0  0  0  0  0  0
   -3.8735   -0.8427   -1.9868 C   0  0  0  0  0  0  0  0  0  0  0  0
   -5.0560   -0.1323   -1.9637 C   0  0  0  0  0  0  0  0  0  0  0  0
   -6.3795   -0.5833   -2.9869 Cl  0  0  0  0  0  0  0  0  0  0  0  0
   -5.1964    0.9675   -1.1055 C   0  0  0  0  0  0  0  0  0  0  0  0
   -6.3712    1.6344   -1.1081 O   0  0  0  0  0  0  0  0  0  0  0  0
   -4.1290    1.3326   -0.2923 C   0  0  0  0  0  0  0  0  0  0  0  0
   -2.9352    0.6177   -0.3288 C   0  0  0  0  0  0  0  0  0  0  0  0
   -1.8633    1.0511    0.4014 O   0  0  0  0  0  0  0  0  0  0  0  0
    6.3257    0.2127    0.3350 H   0  0  0  0  0  0  0  0  0  0  0  0
    6.9346    1.8902    0.2662 H   0  0  0  0  0  0  0  0  0  0  0  0
    6.3943    1.1815    1.8138 H   0  0  0  0  0  0  0  0  0  0  0  0
    2.2858    2.3245   -0.0130 H   0  0  0  0  0  0  0  0  0  0  0  0
    0.2316    1.0520    0.6814 H   0  0  0  0  0  0  0  0  0  0  0  0
    2.7228   -1.7885    2.7074 H   0  0  0  0  0  0  0  0  0  0  0  0
    4.7434   -0.5437    2.0058 H   0  0  0  0  0  0  0  0  0  0  0  0
   -0.0156   -1.2258    3.0550 H   0  0  0  0  0  0  0  0  0  0  0  0
    1.3001   -2.7115   -0.4253 H   0  0  0  0  0  0  0  0  0  0  0  0
   -1.3412   -1.6152   -3.2693 H   0  0  0  0  0  0  0  0  0  0  0  0
   -3.7928   -1.6995   -2.6510 H   0  0  0  0  0  0  0  0  0  0  0  0
   -6.3268    2.3469   -0.4570 H   0  0  0  0  0  0  0  0  0  0  0  0
   -4.2163    2.1990    0.3647 H   0  0  0  0  0  0  0  0  0  0  0  0
   -2.1283    1.0322    1.3387 H   0  0  0  0  0  0  0  0  0  0  0  0
  1  2  2  0  0  0  0
  2  3  1  0  0  0  0
  2  4  1  0  0  0  0
  3 29  1  0  0  0  0
  4  9  1  0  0  0  0
  5  4  2  0  0  0  0
  5  6  1  0  0  0  0
  6  7  2  0  0  0  0
  7 10  1  0  0  0  0
  7  8  1  0  0  0  0
  8 32  1  0  0  0  0
  9 33  1  0  0  0  0
  9  8  2  0  0  0  0
 10 34  1  0  0  0  0
 11 12  2  0  0  0  0
 11 10  1  0  0  0  0
 13 11  1  0  0  0  0
 14 35  1  0  0  0  0
 14 13  1  0  0  0  0
 15 14  2  0  0  0  0
 16 15  1  0  0  0  0
 16 17  1  0  0  0  0
 17 18  1  0  0  0  0
 17 13  2  0  0  0  0
 18 25  2  0  0  0  0
 19 20  2  0  0  0  0
 19 18  1  0  0  0  0
 20 22  1  0  0  0  0
 21 20  1  0  0  0  0
 22 24  2  0  0  0  0
 23 22  1  0  0  0  0
 23 38  1  0  0  0  0
 24 39  1  0  0  0  0
 25 24  1  0  0  0  0
 25 26  1  0  0  0  0
 26 40  1  0  0  0  0
 27  3  1  0  0  0  0
 28  3  1  0  0  0  0
 30  5  1  0  0  0  0
 31  6  1  0  0  0  0
 36 16  1  0  0  0  0
 37 19  1  0  0  0  0
M  END
