omegapdb_1gs5_07.xyz
 OpenBabel12161914463D

 24 23  0  0  1  0  0  0  0  0999 V2000
   -0.4583   -1.2779   -0.5054 C   0  0  2  0  0  0  0  0  0  0  0  0
   -0.9511   -1.9834    0.7746 C   0  0  0  0  0  0  0  0  0  0  0  0
   -0.8740   -3.1853    0.8498 O   0  0  0  0  0  0  0  0  0  0  0  0
   -1.3725   -1.2397    1.7906 O   0  0  0  0  0  0  0  0  0  0  0  0
    1.0446   -0.9531   -0.3835 C   0  0  0  0  0  0  0  0  0  0  0  0
    1.4398    0.0759    0.6714 C   0  0  0  0  0  0  0  0  0  0  0  0
    2.9383    0.2393    0.7122 C   0  0  0  0  0  0  0  0  0  0  0  0
    3.7335   -0.3670    0.0353 O   0  0  0  0  0  0  0  0  0  0  0  0
    3.3121    1.1616    1.6194 O   0  0  0  0  0  0  0  0  0  0  0  0
   -1.2861   -0.1767   -1.0184 N   0  0  0  0  0  0  0  0  0  0  0  0
   -1.6733    0.9563   -0.3905 C   0  0  0  0  0  0  0  0  0  0  0  0
   -1.4266    1.1941    0.7959 O   0  0  0  0  0  0  0  0  0  0  0  0
   -2.4373    1.9536   -1.2302 C   0  0  0  0  0  0  0  0  0  0  0  0
   -0.5405   -2.0580   -1.2624 H   0  0  0  0  0  0  0  0  0  0  0  0
   -1.3625   -0.2757    1.5609 H   0  0  0  0  0  0  0  0  0  0  0  0
    1.5639   -1.8931   -0.1683 H   0  0  0  0  0  0  0  0  0  0  0  0
    1.4057   -0.6210   -1.3615 H   0  0  0  0  0  0  0  0  0  0  0  0
    1.1078   -0.2159    1.6771 H   0  0  0  0  0  0  0  0  0  0  0  0
    0.9924    1.0584    0.4880 H   0  0  0  0  0  0  0  0  0  0  0  0
    4.2823    1.1982    1.5846 H   0  0  0  0  0  0  0  0  0  0  0  0
   -1.5543   -0.2586   -1.9877 H   0  0  0  0  0  0  0  0  0  0  0  0
   -1.8329    2.8592   -1.3377 H   0  0  0  0  0  0  0  0  0  0  0  0
   -2.7037    1.5807   -2.2230 H   0  0  0  0  0  0  0  0  0  0  0  0
   -3.3472    2.2285   -0.6911 H   0  0  0  0  0  0  0  0  0  0  0  0
  1 14  1  6  0  0  0
  1  5  1  0  0  0  0
  1  2  1  0  0  0  0
  2  3  2  0  0  0  0
  2  4  1  0  0  0  0
  5 16  1  0  0  0  0
  5  6  1  0  0  0  0
  6  7  1  0  0  0  0
  6 18  1  0  0  0  0
  7  9  1  0  0  0  0
  8  7  2  0  0  0  0
 10  1  1  0  0  0  0
 10 11  1  0  0  0  0
 11 12  2  0  0  0  0
 13 24  1  0  0  0  0
 13 11  1  0  0  0  0
 15  4  1  0  0  0  0
 17  5  1  0  0  0  0
 19  6  1  0  0  0  0
 20  9  1  0  0  0  0
 21 10  1  0  0  0  0
 22 13  1  0  0  0  0
 23 13  1  0  0  0  0
M  END
