omegapdb_1m5f_11.xyz
 OpenBabel12161914463D

 25 25  0  0  1  0  0  0  0  0999 V2000
   -1.7040   -3.4854   -1.6363 O   0  0  0  0  0  0  0  0  0  0  0  0
   -0.9655   -2.3727   -1.6260 C   0  0  0  0  0  0  0  0  0  0  0  0
   -0.0008   -2.2006   -2.3382 O   0  0  0  0  0  0  0  0  0  0  0  0
   -1.4729   -1.3750   -0.6503 C   0  0  0  0  0  0  0  0  0  0  0  0
   -2.5758   -1.6014    0.0225 N   0  0  0  0  0  0  0  0  0  0  0  0
   -2.7617   -0.4846    0.7887 O   0  0  0  0  0  0  0  0  0  0  0  0
   -1.7727    0.3997    0.5679 C   0  0  0  0  0  0  0  0  0  0  0  0
   -0.8983   -0.1074   -0.3462 C   0  0  0  0  0  0  0  0  0  0  0  0
    0.3840    0.5024   -0.8197 C   0  0  0  0  0  0  0  0  0  0  0  0
    1.3678    0.8112    0.3195 C   0  0  2  0  0  0  0  0  0  0  0  0
    2.5671    1.5486   -0.0876 N   0  0  0  0  0  0  0  0  0  0  0  0
    1.8129   -0.4526    1.0876 C   0  0  0  0  0  0  0  0  0  0  0  0
    1.0990   -1.4023    1.2884 O   0  0  0  0  0  0  0  0  0  0  0  0
    3.0623   -0.3759    1.5508 O   0  0  0  0  0  0  0  0  0  0  0  0
   -1.8349    1.6764    1.3366 C   0  0  0  0  0  0  0  0  0  0  0  0
   -1.3074   -4.0693   -2.3046 H   0  0  0  0  0  0  0  0  0  0  0  0
    0.1705    1.4480   -1.3367 H   0  0  0  0  0  0  0  0  0  0  0  0
    0.8425   -0.1689   -1.5529 H   0  0  0  0  0  0  0  0  0  0  0  0
    0.8481    1.4206    1.0668 H   0  0  0  0  0  0  0  0  0  0  0  0
    2.3984    2.5478   -0.1253 H   0  0  0  0  0  0  0  0  0  0  0  0
    2.8653    1.2537   -1.0139 H   0  0  0  0  0  0  0  0  0  0  0  0
    3.4198    0.4698    1.1948 H   0  0  0  0  0  0  0  0  0  0  0  0
   -1.4143    2.4993    0.7516 H   0  0  0  0  0  0  0  0  0  0  0  0
   -1.2603    1.6067    2.2687 H   0  0  0  0  0  0  0  0  0  0  0  0
   -2.8691    1.9118    1.5940 H   0  0  0  0  0  0  0  0  0  0  0  0
  1  2  1  0  0  0  0
  2  4  1  0  0  0  0
  3  2  2  0  0  0  0
  4  8  1  0  0  0  0
  4  5  2  0  0  0  0
  5  6  1  0  0  0  0
  7  6  1  0  0  0  0
  7 15  1  0  0  0  0
  8  7  2  0  0  0  0
  9  8  1  0  0  0  0
  9 10  1  0  0  0  0
 10 19  1  1  0  0  0
 10 12  1  0  0  0  0
 11 10  1  0  0  0  0
 12 13  2  0  0  0  0
 12 14  1  0  0  0  0
 15 25  1  0  0  0  0
 15 24  1  0  0  0  0
 16  1  1  0  0  0  0
 17  9  1  0  0  0  0
 18  9  1  0  0  0  0
 20 11  1  0  0  0  0
 21 11  1  0  0  0  0
 22 14  1  0  0  0  0
 23 15  1  0  0  0  0
M  END
