omegapdb_1z1r_08.xyz
 OpenBabel12161914463D

 66 68  0  0  1  0  0  0  0  0999 V2000
    0.6971   -0.9064    1.1479 C   0  0  2  0  0  0  0  0  0  0  0  0
    0.9686   -1.9790    0.0790 C   0  0  0  0  0  0  0  0  0  0  0  0
   -0.3027   -2.6371   -0.4117 C   0  0  0  0  0  0  0  0  0  0  0  0
   -0.8161   -2.3729   -1.6851 C   0  0  0  0  0  0  0  0  0  0  0  0
   -2.0772   -2.8200   -2.0659 C   0  0  0  0  0  0  0  0  0  0  0  0
   -2.8472   -3.5477   -1.1605 C   0  0  0  0  0  0  0  0  0  0  0  0
   -2.3090   -3.9093    0.0732 C   0  0  0  0  0  0  0  0  0  0  0  0
   -1.0556   -3.4468    0.4437 C   0  0  0  0  0  0  0  0  0  0  0  0
   -4.1348   -3.9181   -1.4412 O   0  0  0  0  0  0  0  0  0  0  0  0
   -5.0724   -2.8589   -1.6324 C   0  0  0  0  0  0  0  0  0  0  0  0
   -5.3191   -1.9995   -0.3895 C   0  0  0  0  0  0  0  0  0  0  0  0
   -4.3382   -0.8434   -0.1927 C   0  0  0  0  0  0  0  0  0  0  0  0
   -4.4498   -0.2707    1.2140 C   0  0  0  0  0  0  0  0  0  0  0  0
   -5.2754   -0.6741    2.0162 O   0  0  0  0  0  0  0  0  0  0  0  0
   -3.5637    0.7165    1.5573 N   0  0  0  0  0  0  0  0  0  0  0  0
   -2.4438    1.2142    0.7903 C   0  0  2  0  0  0  0  0  0  0  0  0
   -1.1588    0.7049    1.4377 C   0  0  0  0  0  0  0  0  0  0  0  0
   -0.9512    0.9026    2.6360 O   0  0  0  0  0  0  0  0  0  0  0  0
   -0.3031    0.0330    0.6408 N   0  0  0  0  0  0  0  0  0  0  0  0
   -2.4476    2.7394    0.7304 C   0  0  0  0  0  0  0  0  0  0  0  0
   -3.6288    3.2222   -0.1037 C   0  0  0  0  0  0  0  0  0  0  0  0
   -4.2342    2.4872   -0.8686 O   0  0  0  0  0  0  0  0  0  0  0  0
   -3.9480    4.5334    0.0390 N   0  0  0  0  0  0  0  0  0  0  0  0
    1.9760   -0.1951    1.6340 C   0  0  2  0  0  0  0  0  0  0  0  0
    1.7723    0.4750    2.8578 O   0  0  0  0  0  0  0  0  0  0  0  0
    2.5499    0.7838    0.6049 C   0  0  0  0  0  0  0  0  0  0  0  0
    3.6746    1.4687    1.2378 N   0  0  0  0  0  0  0  0  0  0  0  0
    4.4192    2.6884    0.3855 S   0  0  0  0  0  0  0  0  0  0  0  0
    4.9848    3.5801    1.3829 O   0  0  0  0  0  0  0  0  0  0  0  0
    3.5100    3.1704   -0.6423 O   0  0  0  0  0  0  0  0  0  0  0  0
    5.7458    1.8399   -0.4238 C   0  0  0  0  0  0  0  0  0  0  0  0
    6.9506    1.6759    0.2506 C   0  0  0  0  0  0  0  0  0  0  0  0
    7.9806    0.9791   -0.3736 C   0  0  0  0  0  0  0  0  0  0  0  0
    7.8011    0.4634   -1.6551 C   0  0  0  0  0  0  0  0  0  0  0  0
    6.5924    0.6475   -2.3230 C   0  0  0  0  0  0  0  0  0  0  0  0
    5.5562    1.3426   -1.7091 C   0  0  0  0  0  0  0  0  0  0  0  0
    0.2714   -1.3777    2.0429 H   0  0  0  0  0  0  0  0  0  0  0  0
    1.6415   -2.7292    0.5106 H   0  0  0  0  0  0  0  0  0  0  0  0
    1.4977   -1.5259   -0.7697 H   0  0  0  0  0  0  0  0  0  0  0  0
   -0.2361   -1.7774   -2.3868 H   0  0  0  0  0  0  0  0  0  0  0  0
   -2.4758   -2.5844   -3.0496 H   0  0  0  0  0  0  0  0  0  0  0  0
   -2.9098   -4.5167    0.7455 H   0  0  0  0  0  0  0  0  0  0  0  0
   -0.6638   -3.7027    1.4266 H   0  0  0  0  0  0  0  0  0  0  0  0
   -4.7671   -2.2301   -2.4833 H   0  0  0  0  0  0  0  0  0  0  0  0
   -5.9927   -3.3738   -1.9176 H   0  0  0  0  0  0  0  0  0  0  0  0
   -5.3066   -2.6415    0.4984 H   0  0  0  0  0  0  0  0  0  0  0  0
   -6.3319   -1.5817   -0.4490 H   0  0  0  0  0  0  0  0  0  0  0  0
   -3.2997   -1.1696   -0.3368 H   0  0  0  0  0  0  0  0  0  0  0  0
   -4.5148   -0.0348   -0.9162 H   0  0  0  0  0  0  0  0  0  0  0  0
   -3.5780    0.9575    2.5405 H   0  0  0  0  0  0  0  0  0  0  0  0
   -2.5372    0.8572   -0.2365 H   0  0  0  0  0  0  0  0  0  0  0  0
   -0.5399   -0.0477   -0.3376 H   0  0  0  0  0  0  0  0  0  0  0  0
   -2.4826    3.1471    1.7459 H   0  0  0  0  0  0  0  0  0  0  0  0
   -1.5172    3.0972    0.2703 H   0  0  0  0  0  0  0  0  0  0  0  0
   -3.4602    5.1452    0.6712 H   0  0  0  0  0  0  0  0  0  0  0  0
   -4.7219    4.8967   -0.4956 H   0  0  0  0  0  0  0  0  0  0  0  0
    2.7329   -0.9708    1.8256 H   0  0  0  0  0  0  0  0  0  0  0  0
    0.8269    0.7251    2.9280 H   0  0  0  0  0  0  0  0  0  0  0  0
    1.7964    1.5155    0.2898 H   0  0  0  0  0  0  0  0  0  0  0  0
    2.9005    0.2539   -0.2881 H   0  0  0  0  0  0  0  0  0  0  0  0
    3.4824    1.7507    2.1971 H   0  0  0  0  0  0  0  0  0  0  0  0
    7.0760    2.1041    1.2413 H   0  0  0  0  0  0  0  0  0  0  0  0
    8.9273    0.8391    0.1408 H   0  0  0  0  0  0  0  0  0  0  0  0
    8.6089   -0.0811   -2.1382 H   0  0  0  0  0  0  0  0  0  0  0  0
    6.4577    0.2512   -3.3255 H   0  0  0  0  0  0  0  0  0  0  0  0
    4.6129    1.5153   -2.2199 H   0  0  0  0  0  0  0  0  0  0  0  0
  1 24  1  0  0  0  0
  1 37  1  1  0  0  0
  2 38  1  0  0  0  0
  2  1  1  0  0  0  0
  3  2  1  0  0  0  0
  3  8  2  0  0  0  0
  4  3  1  0  0  0  0
  5  4  2  0  0  0  0
  5  6  1  0  0  0  0
  6  7  2  0  0  0  0
  7  8  1  0  0  0  0
  7 42  1  0  0  0  0
  8 43  1  0  0  0  0
  9  6  1  0  0  0  0
 10  9  1  0  0  0  0
 10 11  1  0  0  0  0
 11 12  1  0  0  0  0
 11 46  1  0  0  0  0
 12 13  1  0  0  0  0
 13 15  1  0  0  0  0
 13 14  2  0  0  0  0
 15 50  1  0  0  0  0
 16 51  1  6  0  0  0
 16 17  1  0  0  0  0
 16 15  1  0  0  0  0
 17 18  2  0  0  0  0
 19  1  1  0  0  0  0
 19 17  1  0  0  0  0
 20 16  1  0  0  0  0
 20 53  1  0  0  0  0
 21 23  1  0  0  0  0
 21 20  1  0  0  0  0
 22 21  2  0  0  0  0
 23 55  1  0  0  0  0
 24 57  1  1  0  0  0
 24 25  1  0  0  0  0
 25 58  1  0  0  0  0
 26 27  1  0  0  0  0
 26 24  1  0  0  0  0
 27 61  1  0  0  0  0
 28 27  1  0  0  0  0
 28 29  2  0  0  0  0
 30 28  2  0  0  0  0
 31 32  2  0  0  0  0
 31 28  1  0  0  0  0
 32 62  1  0  0  0  0
 33 63  1  0  0  0  0
 33 32  1  0  0  0  0
 34 33  2  0  0  0  0
 35 36  2  0  0  0  0
 35 34  1  0  0  0  0
 36 31  1  0  0  0  0
 39  2  1  0  0  0  0
 40  4  1  0  0  0  0
 41  5  1  0  0  0  0
 44 10  1  0  0  0  0
 45 10  1  0  0  0  0
 47 11  1  0  0  0  0
 48 12  1  0  0  0  0
 49 12  1  0  0  0  0
 52 19  1  0  0  0  0
 54 20  1  0  0  0  0
 56 23  1  0  0  0  0
 59 26  1  0  0  0  0
 60 26  1  0  0  0  0
 64 34  1  0  0  0  0
 65 35  1  0  0  0  0
 66 36  1  0  0  0  0
M  END
