omegapdb_1xom_05.xyz
 OpenBabel12161914463D

 50 52  0  0  1  0  0  0  0  0999 V2000
    6.8144    0.6677   -0.6946 O   0  0  0  0  0  0  0  0  0  0  0  0
    6.0979    1.4569    0.1355 C   0  0  0  0  0  0  0  0  0  0  0  0
    6.5564    2.4746    0.5973 O   0  0  0  0  0  0  0  0  0  0  0  0
    4.6842    0.9692    0.3719 C   0  0  1  0  0  0  0  0  0  0  0  0
    3.7524    1.5044   -0.7313 C   0  0  0  0  0  0  0  0  0  0  0  0
    2.3076    1.1065   -0.4307 C   0  0  0  0  0  0  0  0  0  0  0  0
    2.1342   -0.4265   -0.3062 C   0  0  2  0  0  0  0  0  0  0  0  0
    3.1115   -0.9427    0.7857 C   0  0  0  0  0  0  0  0  0  0  0  0
    4.5631   -0.5508    0.5201 C   0  0  0  0  0  0  0  0  0  0  0  0
    2.4878   -1.0407   -1.6126 C   0  0  0  0  0  0  0  0  0  0  0  0
    2.7415   -1.5200   -2.6356 N   0  0  0  0  0  0  0  0  0  0  0  0
    0.6978   -0.8681    0.0275 C   0  0  0  0  0  0  0  0  0  0  0  0
    0.3791   -2.2215   -0.0403 C   0  0  0  0  0  0  0  0  0  0  0  0
   -0.8846   -2.6880    0.3198 C   0  0  0  0  0  0  0  0  0  0  0  0
   -1.8664   -1.8027    0.7538 C   0  0  0  0  0  0  0  0  0  0  0  0
   -3.1263   -2.1514    1.1170 O   0  0  0  0  0  0  0  0  0  0  0  0
   -3.4569   -3.5228    1.0944 C   0  0  0  0  0  0  0  0  0  0  0  0
   -1.5566   -0.4334    0.8134 C   0  0  0  0  0  0  0  0  0  0  0  0
   -0.3005    0.0176    0.4353 C   0  0  0  0  0  0  0  0  0  0  0  0
   -2.5034    0.4502    1.2669 O   0  0  0  0  0  0  0  0  0  0  0  0
   -3.1446    1.1650    0.2130 C   0  0  0  0  0  0  0  0  0  0  0  0
   -4.0465    0.3048   -0.6691 C   0  0  0  0  0  0  0  0  0  0  0  0
   -4.9082    1.3496   -1.3879 C   0  0  0  0  0  0  0  0  0  0  0  0
   -5.1257    2.4776   -0.3430 C   0  0  0  0  0  0  0  0  0  0  0  0
   -4.1093    2.1969    0.7897 C   0  0  0  0  0  0  0  0  0  0  0  0
    7.6778    1.1030   -0.7897 H   0  0  0  0  0  0  0  0  0  0  0  0
    4.3782    1.4427    1.3125 H   0  0  0  0  0  0  0  0  0  0  0  0
    4.0631    1.1148   -1.7085 H   0  0  0  0  0  0  0  0  0  0  0  0
    3.8351    2.5969   -0.7811 H   0  0  0  0  0  0  0  0  0  0  0  0
    2.0203    1.5586    0.5279 H   0  0  0  0  0  0  0  0  0  0  0  0
    1.6297    1.4975   -1.1961 H   0  0  0  0  0  0  0  0  0  0  0  0
    3.0095   -2.0291    0.8836 H   0  0  0  0  0  0  0  0  0  0  0  0
    2.7835   -0.5110    1.7391 H   0  0  0  0  0  0  0  0  0  0  0  0
    5.1920   -0.8934    1.3493 H   0  0  0  0  0  0  0  0  0  0  0  0
    4.9382   -1.0436   -0.3828 H   0  0  0  0  0  0  0  0  0  0  0  0
    1.1197   -2.9401   -0.3889 H   0  0  0  0  0  0  0  0  0  0  0  0
   -1.0937   -3.7498    0.2570 H   0  0  0  0  0  0  0  0  0  0  0  0
   -3.3907   -3.9312    0.0775 H   0  0  0  0  0  0  0  0  0  0  0  0
   -4.4869   -3.5896    1.4458 H   0  0  0  0  0  0  0  0  0  0  0  0
   -2.8060   -4.1046    1.7605 H   0  0  0  0  0  0  0  0  0  0  0  0
   -0.1205    1.0896    0.4731 H   0  0  0  0  0  0  0  0  0  0  0  0
   -2.3768    1.6565   -0.4064 H   0  0  0  0  0  0  0  0  0  0  0  0
   -4.6656   -0.3290   -0.0253 H   0  0  0  0  0  0  0  0  0  0  0  0
   -3.4850   -0.3519   -1.3434 H   0  0  0  0  0  0  0  0  0  0  0  0
   -5.8479    0.9322   -1.7644 H   0  0  0  0  0  0  0  0  0  0  0  0
   -4.3653    1.7470   -2.2546 H   0  0  0  0  0  0  0  0  0  0  0  0
   -6.1495    2.4759    0.0455 H   0  0  0  0  0  0  0  0  0  0  0  0
   -4.9598    3.4588   -0.7995 H   0  0  0  0  0  0  0  0  0  0  0  0
   -3.5976    3.0943    1.1516 H   0  0  0  0  0  0  0  0  0  0  0  0
   -4.6009    1.7332    1.6524 H   0  0  0  0  0  0  0  0  0  0  0  0
  1  2  1  0  0  0  0
  2  4  1  0  0  0  0
  2  3  2  0  0  0  0
  4  9  1  0  0  0  0
  4 27  1  1  0  0  0
  5  6  1  0  0  0  0
  5  4  1  0  0  0  0
  6  7  1  0  0  0  0
  6 30  1  0  0  0  0
  7 10  1  6  0  0  0
  7 12  1  0  0  0  0
  7  8  1  0  0  0  0
  8 32  1  0  0  0  0
  8 33  1  0  0  0  0
  9  8  1  0  0  0  0
  9 34  1  0  0  0  0
 11 10  3  0  0  0  0
 12 19  1  0  0  0  0
 13 12  2  0  0  0  0
 13 14  1  0  0  0  0
 14 15  2  0  0  0  0
 15 18  1  0  0  0  0
 15 16  1  0  0  0  0
 17 16  1  0  0  0  0
 17 39  1  0  0  0  0
 17 40  1  0  0  0  0
 18 20  1  0  0  0  0
 19 41  1  0  0  0  0
 19 18  2  0  0  0  0
 21 25  1  0  0  0  0
 21 20  1  0  0  0  0
 22 43  1  0  0  0  0
 22 21  1  0  0  0  0
 23 22  1  0  0  0  0
 23 24  1  0  0  0  0
 24 47  1  0  0  0  0
 24 25  1  0  0  0  0
 25 49  1  0  0  0  0
 25 50  1  0  0  0  0
 26  1  1  0  0  0  0
 28  5  1  0  0  0  0
 29  5  1  0  0  0  0
 31  6  1  0  0  0  0
 35  9  1  0  0  0  0
 36 13  1  0  0  0  0
 37 14  1  0  0  0  0
 38 17  1  0  0  0  0
 42 21  1  0  0  0  0
 44 22  1  0  0  0  0
 45 23  1  0  0  0  0
 46 23  1  0  0  0  0
 48 24  1  0  0  0  0
M  END
