omegapdb_1qxw_00.xyz
 OpenBabel12161914463D

 36 36  0  0  1  0  0  0  0  0999 V2000
    4.0641    1.6934   -0.3797 C   0  0  0  0  0  0  0  0  0  0  0  0
    5.0099    1.0743    0.6101 C   0  0  0  0  0  0  0  0  0  0  0  0
    4.0750    0.2071   -0.1761 C   0  0  0  0  0  0  0  0  0  0  0  0
    2.9695   -0.3558    0.5420 N   0  0  0  0  0  0  0  0  0  0  0  0
    1.7597   -0.4952   -0.2622 C   0  0  0  0  0  0  0  0  0  0  0  0
    0.6285   -0.8888    0.6850 C   0  0  0  0  0  0  0  0  0  0  0  0
   -0.7503   -1.0176    0.0130 C   0  0  1  0  0  0  0  0  0  0  0  0
   -1.6155   -1.5685    1.0549 N   0  0  0  0  0  0  0  0  0  0  0  0
   -1.2348    0.2763   -0.6546 C   0  0  0  0  0  0  0  0  0  0  0  0
   -2.6480    0.1870   -1.2460 C   0  0  0  0  0  0  0  0  0  0  0  0
   -3.7753    0.5692   -0.2830 C   0  0  0  0  0  0  0  0  0  0  0  0
   -5.1557    0.4556   -0.9241 C   0  0  0  0  0  0  0  0  0  0  0  0
    0.5188    0.0969    1.6929 O   0  0  0  0  0  0  0  0  0  0  0  0
    0.9728   -2.1434    1.2296 O   0  0  0  0  0  0  0  0  0  0  0  0
    3.2068    2.2281    0.0202 H   0  0  0  0  0  0  0  0  0  0  0  0
    4.4678    2.0907   -1.3059 H   0  0  0  0  0  0  0  0  0  0  0  0
    4.7714    1.1999    1.6612 H   0  0  0  0  0  0  0  0  0  0  0  0
    6.0697    1.0430    0.3758 H   0  0  0  0  0  0  0  0  0  0  0  0
    4.5090   -0.3934   -0.9803 H   0  0  0  0  0  0  0  0  0  0  0  0
    3.2290   -1.2602    0.9286 H   0  0  0  0  0  0  0  0  0  0  0  0
    1.5457    0.4805   -0.7084 H   0  0  0  0  0  0  0  0  0  0  0  0
    1.8537   -1.2367   -1.0697 H   0  0  0  0  0  0  0  0  0  0  0  0
   -0.6500   -1.7868   -0.7651 H   0  0  0  0  0  0  0  0  0  0  0  0
   -1.7828   -0.8591    1.7657 H   0  0  0  0  0  0  0  0  0  0  0  0
   -2.5113   -1.8645    0.6799 H   0  0  0  0  0  0  0  0  0  0  0  0
   -0.5377    0.5086   -1.4690 H   0  0  0  0  0  0  0  0  0  0  0  0
   -1.1697    1.1091    0.0583 H   0  0  0  0  0  0  0  0  0  0  0  0
   -2.7140    0.8532   -2.1170 H   0  0  0  0  0  0  0  0  0  0  0  0
   -2.8216   -0.8291   -1.6331 H   0  0  0  0  0  0  0  0  0  0  0  0
   -3.7299   -0.0555    0.6185 H   0  0  0  0  0  0  0  0  0  0  0  0
   -3.6111    1.6006    0.0592 H   0  0  0  0  0  0  0  0  0  0  0  0
   -5.3562   -0.5726   -1.2482 H   0  0  0  0  0  0  0  0  0  0  0  0
   -5.2311    1.1018   -1.8067 H   0  0  0  0  0  0  0  0  0  0  0  0
   -5.9467    0.7481   -0.2259 H   0  0  0  0  0  0  0  0  0  0  0  0
    1.4362    0.2287    1.9886 H   0  0  0  0  0  0  0  0  0  0  0  0
    0.1541   -2.4251    1.6787 H   0  0  0  0  0  0  0  0  0  0  0  0
  1  3  1  0  0  0  0
  1 15  1  0  0  0  0
  1  2  1  0  0  0  0
  2 17  1  0  0  0  0
  3  4  1  0  0  0  0
  3  2  1  0  0  0  0
  4 20  1  0  0  0  0
  5  4  1  0  0  0  0
  5  6  1  0  0  0  0
  6 14  1  0  0  0  0
  6 13  1  0  0  0  0
  7 23  1  6  0  0  0
  7  6  1  0  0  0  0
  7  8  1  0  0  0  0
  8 24  1  0  0  0  0
  9  7  1  0  0  0  0
  9 27  1  0  0  0  0
 10  9  1  0  0  0  0
 10 11  1  0  0  0  0
 11 31  1  0  0  0  0
 11 30  1  0  0  0  0
 12 11  1  0  0  0  0
 12 34  1  0  0  0  0
 13 35  1  0  0  0  0
 14 36  1  0  0  0  0
 16  1  1  0  0  0  0
 18  2  1  0  0  0  0
 19  3  1  0  0  0  0
 21  5  1  0  0  0  0
 22  5  1  0  0  0  0
 25  8  1  0  0  0  0
 26  9  1  0  0  0  0
 28 10  1  0  0  0  0
 29 10  1  0  0  0  0
 32 12  1  0  0  0  0
 33 12  1  0  0  0  0
M  END
