omegapdb_1z1r_22.xyz
 OpenBabel12161914463D

 66 68  0  0  1  0  0  0  0  0999 V2000
    0.5570    0.2432    0.1478 C   0  0  2  0  0  0  0  0  0  0  0  0
    0.8012   -0.8696   -0.8945 C   0  0  0  0  0  0  0  0  0  0  0  0
   -0.3098   -1.8969   -0.9227 C   0  0  0  0  0  0  0  0  0  0  0  0
   -0.6788   -2.5937    0.2306 C   0  0  0  0  0  0  0  0  0  0  0  0
   -1.8424   -3.3512    0.2600 C   0  0  0  0  0  0  0  0  0  0  0  0
   -2.6337   -3.4433   -0.8840 C   0  0  0  0  0  0  0  0  0  0  0  0
   -2.1926   -2.8935   -2.0821 C   0  0  0  0  0  0  0  0  0  0  0  0
   -1.0508   -2.1028   -2.0870 C   0  0  0  0  0  0  0  0  0  0  0  0
   -3.8857   -4.0061   -0.8459 O   0  0  0  0  0  0  0  0  0  0  0  0
   -4.7889   -3.3165    0.0218 C   0  0  0  0  0  0  0  0  0  0  0  0
   -4.9174   -1.8320   -0.3369 C   0  0  0  0  0  0  0  0  0  0  0  0
   -5.6120   -0.9808    0.7349 C   0  0  0  0  0  0  0  0  0  0  0  0
   -4.8304   -0.9642    2.0419 C   0  0  0  0  0  0  0  0  0  0  0  0
   -5.1248   -1.7097    2.9628 O   0  0  0  0  0  0  0  0  0  0  0  0
   -3.7679   -0.1089    2.1643 N   0  0  0  0  0  0  0  0  0  0  0  0
   -3.1004    0.7183    1.1847 C   0  0  2  0  0  0  0  0  0  0  0  0
   -1.5916    0.4237    1.3014 C   0  0  0  0  0  0  0  0  0  0  0  0
   -1.1283    0.0266    2.3646 O   0  0  0  0  0  0  0  0  0  0  0  0
   -0.8390    0.6348    0.1967 N   0  0  0  0  0  0  0  0  0  0  0  0
   -3.3737    2.2098    1.4367 C   0  0  0  0  0  0  0  0  0  0  0  0
   -3.0043    3.0848    0.2481 C   0  0  0  0  0  0  0  0  0  0  0  0
   -2.6289    2.6306   -0.8271 O   0  0  0  0  0  0  0  0  0  0  0  0
   -3.1305    4.4187    0.4497 N   0  0  0  0  0  0  0  0  0  0  0  0
    1.4021    1.5160   -0.0727 C   0  0  2  0  0  0  0  0  0  0  0  0
    1.0108    2.2085   -1.2421 O   0  0  0  0  0  0  0  0  0  0  0  0
    2.9135    1.2588   -0.0493 C   0  0  0  0  0  0  0  0  0  0  0  0
    3.4093    0.8696   -1.3782 N   0  0  0  0  0  0  0  0  0  0  0  0
    4.6503   -0.2385   -1.4999 S   0  0  0  0  0  0  0  0  0  0  0  0
    4.9917   -0.2783   -2.9106 O   0  0  0  0  0  0  0  0  0  0  0  0
    4.2279   -1.4275   -0.7776 O   0  0  0  0  0  0  0  0  0  0  0  0
    6.0198    0.4595   -0.6095 C   0  0  0  0  0  0  0  0  0  0  0  0
    6.2923    0.0248    0.6854 C   0  0  0  0  0  0  0  0  0  0  0  0
    7.3460    0.6031    1.3840 C   0  0  0  0  0  0  0  0  0  0  0  0
    8.1195    1.5975    0.7895 C   0  0  0  0  0  0  0  0  0  0  0  0
    7.8467    2.0110   -0.5122 C   0  0  0  0  0  0  0  0  0  0  0  0
    6.7990    1.4364   -1.2231 C   0  0  0  0  0  0  0  0  0  0  0  0
    0.7841   -0.1541    1.1435 H   0  0  0  0  0  0  0  0  0  0  0  0
    0.8919   -0.4245   -1.8928 H   0  0  0  0  0  0  0  0  0  0  0  0
    1.7597   -1.3543   -0.6706 H   0  0  0  0  0  0  0  0  0  0  0  0
   -0.0924   -2.5034    1.1432 H   0  0  0  0  0  0  0  0  0  0  0  0
   -2.1607   -3.8450    1.1753 H   0  0  0  0  0  0  0  0  0  0  0  0
   -2.7938   -3.0267   -2.9782 H   0  0  0  0  0  0  0  0  0  0  0  0
   -0.7475   -1.6123   -3.0088 H   0  0  0  0  0  0  0  0  0  0  0  0
   -5.7458   -3.8349   -0.0950 H   0  0  0  0  0  0  0  0  0  0  0  0
   -4.4751   -3.4396    1.0664 H   0  0  0  0  0  0  0  0  0  0  0  0
   -3.9146   -1.4241   -0.5068 H   0  0  0  0  0  0  0  0  0  0  0  0
   -5.4550   -1.7396   -1.2875 H   0  0  0  0  0  0  0  0  0  0  0  0
   -5.7634    0.0399    0.3621 H   0  0  0  0  0  0  0  0  0  0  0  0
   -6.5949   -1.3979    0.9751 H   0  0  0  0  0  0  0  0  0  0  0  0
   -3.2401   -0.2357    3.0215 H   0  0  0  0  0  0  0  0  0  0  0  0
   -3.4485    0.4777    0.1766 H   0  0  0  0  0  0  0  0  0  0  0  0
   -1.2308    1.1499   -0.5841 H   0  0  0  0  0  0  0  0  0  0  0  0
   -4.4427    2.3368    1.6488 H   0  0  0  0  0  0  0  0  0  0  0  0
   -2.8358    2.5382    2.3342 H   0  0  0  0  0  0  0  0  0  0  0  0
   -3.4607    4.8073    1.3177 H   0  0  0  0  0  0  0  0  0  0  0  0
   -2.9187    5.0392   -0.3167 H   0  0  0  0  0  0  0  0  0  0  0  0
    1.1545    2.1844    0.7615 H   0  0  0  0  0  0  0  0  0  0  0  0
    1.3893    1.7280   -1.9937 H   0  0  0  0  0  0  0  0  0  0  0  0
    3.4293    2.1618    0.2906 H   0  0  0  0  0  0  0  0  0  0  0  0
    3.1380    0.4564    0.6587 H   0  0  0  0  0  0  0  0  0  0  0  0
    3.5735    1.6416   -2.0197 H   0  0  0  0  0  0  0  0  0  0  0  0
    5.6871   -0.7638    1.1249 H   0  0  0  0  0  0  0  0  0  0  0  0
    7.5652    0.2744    2.3961 H   0  0  0  0  0  0  0  0  0  0  0  0
    8.9424    2.0471    1.3402 H   0  0  0  0  0  0  0  0  0  0  0  0
    8.4558    2.7812   -0.9773 H   0  0  0  0  0  0  0  0  0  0  0  0
    6.5941    1.7294   -2.2496 H   0  0  0  0  0  0  0  0  0  0  0  0
  1 19  1  0  0  0  0
  1 37  1  1  0  0  0
  2 39  1  0  0  0  0
  2  1  1  0  0  0  0
  3  2  1  0  0  0  0
  3  4  2  0  0  0  0
  4  5  1  0  0  0  0
  4 40  1  0  0  0  0
  5 41  1  0  0  0  0
  6  9  1  0  0  0  0
  6  5  2  0  0  0  0
  7  6  1  0  0  0  0
  8  7  2  0  0  0  0
  8  3  1  0  0  0  0
  9 10  1  0  0  0  0
 10 45  1  0  0  0  0
 11 10  1  0  0  0  0
 11 12  1  0  0  0  0
 12 49  1  0  0  0  0
 12 13  1  0  0  0  0
 13 15  1  0  0  0  0
 13 14  2  0  0  0  0
 15 50  1  0  0  0  0
 16 51  1  6  0  0  0
 16 17  1  0  0  0  0
 16 20  1  0  0  0  0
 16 15  1  0  0  0  0
 17 18  2  0  0  0  0
 19 17  1  0  0  0  0
 20 53  1  0  0  0  0
 20 54  1  0  0  0  0
 21 23  1  0  0  0  0
 21 20  1  0  0  0  0
 22 21  2  0  0  0  0
 23 55  1  0  0  0  0
 24 26  1  0  0  0  0
 24  1  1  0  0  0  0
 24 57  1  1  0  0  0
 25 24  1  0  0  0  0
 26 59  1  0  0  0  0
 26 60  1  0  0  0  0
 27 26  1  0  0  0  0
 28 27  1  0  0  0  0
 28 30  2  0  0  0  0
 28 31  1  0  0  0  0
 29 28  2  0  0  0  0
 31 32  1  0  0  0  0
 32 62  1  0  0  0  0
 32 33  2  0  0  0  0
 33 63  1  0  0  0  0
 34 64  1  0  0  0  0
 34 33  1  0  0  0  0
 35 34  2  0  0  0  0
 36 31  2  0  0  0  0
 36 35  1  0  0  0  0
 38  2  1  0  0  0  0
 42  7  1  0  0  0  0
 43  8  1  0  0  0  0
 44 10  1  0  0  0  0
 46 11  1  0  0  0  0
 47 11  1  0  0  0  0
 48 12  1  0  0  0  0
 52 19  1  0  0  0  0
 56 23  1  0  0  0  0
 58 25  1  0  0  0  0
 61 27  1  0  0  0  0
 65 35  1  0  0  0  0
 66 36  1  0  0  0  0
M  END
