omegapdb_1qxw_24.xyz
 OpenBabel12161914463D

 36 36  0  0  1  0  0  0  0  0999 V2000
    4.3264   -0.7085    0.1977 C   0  0  0  0  0  0  0  0  0  0  0  0
    4.5931    0.6478   -0.3970 C   0  0  0  0  0  0  0  0  0  0  0  0
    3.2664    0.3499    0.2283 C   0  0  0  0  0  0  0  0  0  0  0  0
    2.1623    0.1872   -0.6729 N   0  0  0  0  0  0  0  0  0  0  0  0
    1.1876   -0.7989   -0.2427 C   0  0  0  0  0  0  0  0  0  0  0  0
    0.0909   -0.3152    0.7145 C   0  0  0  0  0  0  0  0  0  0  0  0
   -0.7761    0.8368    0.1680 C   0  0  1  0  0  0  0  0  0  0  0  0
    0.0540    2.0365    0.0969 N   0  0  0  0  0  0  0  0  0  0  0  0
   -1.3918    0.6073   -1.2199 C   0  0  0  0  0  0  0  0  0  0  0  0
   -2.3514   -0.5680   -1.4401 C   0  0  0  0  0  0  0  0  0  0  0  0
   -3.7643   -0.4163   -0.8614 C   0  0  0  0  0  0  0  0  0  0  0  0
   -3.9083   -0.6187    0.6474 C   0  0  0  0  0  0  0  0  0  0  0  0
    0.6502    0.1687    1.9312 O   0  0  0  0  0  0  0  0  0  0  0  0
   -0.6882   -1.4656    1.0045 O   0  0  0  0  0  0  0  0  0  0  0  0
    4.8226   -0.9773    1.1267 H   0  0  0  0  0  0  0  0  0  0  0  0
    4.1638   -1.5299   -0.4953 H   0  0  0  0  0  0  0  0  0  0  0  0
    4.6104    0.7169   -1.4806 H   0  0  0  0  0  0  0  0  0  0  0  0
    5.2713    1.3239    0.1169 H   0  0  0  0  0  0  0  0  0  0  0  0
    3.0460    0.8044    1.1976 H   0  0  0  0  0  0  0  0  0  0  0  0
    1.7101    1.0895   -0.8147 H   0  0  0  0  0  0  0  0  0  0  0  0
    0.7026   -1.2454   -1.1221 H   0  0  0  0  0  0  0  0  0  0  0  0
    1.7136   -1.6090    0.2715 H   0  0  0  0  0  0  0  0  0  0  0  0
   -1.5866    0.9481    0.9086 H   0  0  0  0  0  0  0  0  0  0  0  0
   -0.5016    2.8218   -0.2321 H   0  0  0  0  0  0  0  0  0  0  0  0
    0.3899    2.2730    1.0254 H   0  0  0  0  0  0  0  0  0  0  0  0
   -1.9188    1.5355   -1.4915 H   0  0  0  0  0  0  0  0  0  0  0  0
   -0.5640    0.5335   -1.9385 H   0  0  0  0  0  0  0  0  0  0  0  0
   -2.4547   -0.6887   -2.5261 H   0  0  0  0  0  0  0  0  0  0  0  0
   -1.9003   -1.4952   -1.0693 H   0  0  0  0  0  0  0  0  0  0  0  0
   -4.1664    0.5673   -1.1400 H   0  0  0  0  0  0  0  0  0  0  0  0
   -4.4079   -1.1514   -1.3599 H   0  0  0  0  0  0  0  0  0  0  0  0
   -3.4352    0.1778    1.2296 H   0  0  0  0  0  0  0  0  0  0  0  0
   -3.4797   -1.5773    0.9605 H   0  0  0  0  0  0  0  0  0  0  0  0
   -4.9660   -0.6291    0.9315 H   0  0  0  0  0  0  0  0  0  0  0  0
    0.8331   -0.6143    2.4712 H   0  0  0  0  0  0  0  0  0  0  0  0
   -1.3325   -1.2177    1.6829 H   0  0  0  0  0  0  0  0  0  0  0  0
  1  3  1  0  0  0  0
  1 15  1  0  0  0  0
  2 18  1  0  0  0  0
  2  1  1  0  0  0  0
  2  3  1  0  0  0  0
  3 19  1  0  0  0  0
  4  5  1  0  0  0  0
  4  3  1  0  0  0  0
  5 22  1  0  0  0  0
  5  6  1  0  0  0  0
  6 14  1  0  0  0  0
  6 13  1  0  0  0  0
  7  6  1  0  0  0  0
  7 23  1  1  0  0  0
  8  7  1  0  0  0  0
  8 25  1  0  0  0  0
  9  7  1  0  0  0  0
 10  9  1  0  0  0  0
 10 29  1  0  0  0  0
 10 11  1  0  0  0  0
 11 12  1  0  0  0  0
 12 34  1  0  0  0  0
 12 33  1  0  0  0  0
 12 32  1  0  0  0  0
 13 35  1  0  0  0  0
 14 36  1  0  0  0  0
 16  1  1  0  0  0  0
 17  2  1  0  0  0  0
 20  4  1  0  0  0  0
 21  5  1  0  0  0  0
 24  8  1  0  0  0  0
 26  9  1  0  0  0  0
 27  9  1  0  0  0  0
 28 10  1  0  0  0  0
 30 11  1  0  0  0  0
 31 11  1  0  0  0  0
M  END
