omegapdb_1z1r_06.xyz
 OpenBabel12161914463D

 66 68  0  0  1  0  0  0  0  0999 V2000
    0.4943    0.0806    0.6723 C   0  0  2  0  0  0  0  0  0  0  0  0
    0.7680   -0.4594   -0.7585 C   0  0  0  0  0  0  0  0  0  0  0  0
   -0.3025   -1.4047   -1.2569 C   0  0  0  0  0  0  0  0  0  0  0  0
   -1.2531   -0.9797   -2.1921 C   0  0  0  0  0  0  0  0  0  0  0  0
   -2.3646   -1.7560   -2.4833 C   0  0  0  0  0  0  0  0  0  0  0  0
   -2.5427   -2.9752   -1.8332 C   0  0  0  0  0  0  0  0  0  0  0  0
   -1.5305   -3.4834   -1.0177 C   0  0  0  0  0  0  0  0  0  0  0  0
   -0.4277   -2.6895   -0.7247 C   0  0  0  0  0  0  0  0  0  0  0  0
   -3.7446   -3.6136   -1.9801 O   0  0  0  0  0  0  0  0  0  0  0  0
   -4.5009   -3.8048   -0.7847 C   0  0  0  0  0  0  0  0  0  0  0  0
   -4.9059   -2.5161   -0.0608 C   0  0  0  0  0  0  0  0  0  0  0  0
   -3.8016   -1.9339    0.8299 C   0  0  0  0  0  0  0  0  0  0  0  0
   -4.2789   -0.7778    1.6842 C   0  0  0  0  0  0  0  0  0  0  0  0
   -5.1308   -0.9350    2.5380 O   0  0  0  0  0  0  0  0  0  0  0  0
   -3.6340    0.4431    1.5362 N   0  0  0  0  0  0  0  0  0  0  0  0
   -3.2043    0.9911    0.2560 C   0  0  2  0  0  0  0  0  0  0  0  0
   -1.6828    1.2156    0.1551 C   0  0  0  0  0  0  0  0  0  0  0  0
   -1.2323    2.0599   -0.6339 O   0  0  0  0  0  0  0  0  0  0  0  0
   -0.9203    0.4093    0.9083 N   0  0  0  0  0  0  0  0  0  0  0  0
   -3.9691    2.2850   -0.0663 C   0  0  0  0  0  0  0  0  0  0  0  0
   -3.7535    3.3177    1.0303 C   0  0  0  0  0  0  0  0  0  0  0  0
   -4.3540    3.2531    2.0965 O   0  0  0  0  0  0  0  0  0  0  0  0
   -2.8504    4.2866    0.7384 N   0  0  0  0  0  0  0  0  0  0  0  0
    1.4137    1.2752    1.0275 C   0  0  2  0  0  0  0  0  0  0  0  0
    1.4272    2.2707    0.0291 O   0  0  0  0  0  0  0  0  0  0  0  0
    2.8669    0.8424    1.2254 C   0  0  0  0  0  0  0  0  0  0  0  0
    3.6906    2.0304    1.4097 N   0  0  0  0  0  0  0  0  0  0  0  0
    5.2942    1.8703    1.7901 S   0  0  0  0  0  0  0  0  0  0  0  0
    5.3605    1.0115    2.9579 O   0  0  0  0  0  0  0  0  0  0  0  0
    5.8321    3.2182    1.7856 O   0  0  0  0  0  0  0  0  0  0  0  0
    6.0295    0.9836    0.4366 C   0  0  0  0  0  0  0  0  0  0  0  0
    6.4319    1.6859   -0.6959 C   0  0  0  0  0  0  0  0  0  0  0  0
    6.9709    0.9845   -1.7693 C   0  0  0  0  0  0  0  0  0  0  0  0
    7.1201   -0.3990   -1.7005 C   0  0  0  0  0  0  0  0  0  0  0  0
    6.7358   -1.0871   -0.5515 C   0  0  0  0  0  0  0  0  0  0  0  0
    6.1915   -0.3972    0.5259 C   0  0  0  0  0  0  0  0  0  0  0  0
    0.7001   -0.7223    1.3880 H   0  0  0  0  0  0  0  0  0  0  0  0
    0.8665    0.3895   -1.4408 H   0  0  0  0  0  0  0  0  0  0  0  0
    1.7357   -0.9804   -0.7494 H   0  0  0  0  0  0  0  0  0  0  0  0
   -1.1513    0.0047   -2.6433 H   0  0  0  0  0  0  0  0  0  0  0  0
   -3.1435   -1.4094   -3.1594 H   0  0  0  0  0  0  0  0  0  0  0  0
   -1.6302   -4.4769   -0.5878 H   0  0  0  0  0  0  0  0  0  0  0  0
    0.3240   -3.0612   -0.0308 H   0  0  0  0  0  0  0  0  0  0  0  0
   -3.9482   -4.4565   -0.0905 H   0  0  0  0  0  0  0  0  0  0  0  0
   -5.3887   -4.3492   -1.1155 H   0  0  0  0  0  0  0  0  0  0  0  0
   -5.2453   -1.7863   -0.8073 H   0  0  0  0  0  0  0  0  0  0  0  0
   -5.7654   -2.7384    0.5841 H   0  0  0  0  0  0  0  0  0  0  0  0
   -3.4825   -2.7114    1.5365 H   0  0  0  0  0  0  0  0  0  0  0  0
   -2.9125   -1.6464    0.2652 H   0  0  0  0  0  0  0  0  0  0  0  0
   -4.0294    1.1393    2.1660 H   0  0  0  0  0  0  0  0  0  0  0  0
   -3.4331    0.2655   -0.5397 H   0  0  0  0  0  0  0  0  0  0  0  0
   -1.4215   -0.1281    1.6043 H   0  0  0  0  0  0  0  0  0  0  0  0
   -5.0385    2.0593   -0.0923 H   0  0  0  0  0  0  0  0  0  0  0  0
   -3.6681    2.6643   -1.0451 H   0  0  0  0  0  0  0  0  0  0  0  0
   -2.1718    4.1046    0.0129 H   0  0  0  0  0  0  0  0  0  0  0  0
   -2.5903    4.9157    1.4845 H   0  0  0  0  0  0  0  0  0  0  0  0
    1.0441    1.6976    1.9778 H   0  0  0  0  0  0  0  0  0  0  0  0
    0.5046    2.3918   -0.2763 H   0  0  0  0  0  0  0  0  0  0  0  0
    3.2080    0.2684    0.3508 H   0  0  0  0  0  0  0  0  0  0  0  0
    2.9680    0.2066    2.1105 H   0  0  0  0  0  0  0  0  0  0  0  0
    3.4997    2.7867    0.7614 H   0  0  0  0  0  0  0  0  0  0  0  0
    6.3399    2.7686   -0.7223 H   0  0  0  0  0  0  0  0  0  0  0  0
    7.2820    1.5213   -2.6610 H   0  0  0  0  0  0  0  0  0  0  0  0
    7.5413   -0.9423   -2.5429 H   0  0  0  0  0  0  0  0  0  0  0  0
    6.8625   -2.1647   -0.4932 H   0  0  0  0  0  0  0  0  0  0  0  0
    5.9007   -0.9128    1.4376 H   0  0  0  0  0  0  0  0  0  0  0  0
  1 19  1  0  0  0  0
  1 24  1  0  0  0  0
  1 37  1  1  0  0  0
  2 39  1  0  0  0  0
  2  1  1  0  0  0  0
  3  2  1  0  0  0  0
  3  8  2  0  0  0  0
  4  3  1  0  0  0  0
  5  4  2  0  0  0  0
  5  6  1  0  0  0  0
  6  7  2  0  0  0  0
  7  8  1  0  0  0  0
  7 42  1  0  0  0  0
  8 43  1  0  0  0  0
  9  6  1  0  0  0  0
  9 10  1  0  0  0  0
 10 44  1  0  0  0  0
 10 11  1  0  0  0  0
 11 47  1  0  0  0  0
 11 12  1  0  0  0  0
 12 48  1  0  0  0  0
 12 13  1  0  0  0  0
 13 14  2  0  0  0  0
 15 13  1  0  0  0  0
 15 50  1  0  0  0  0
 16 51  1  6  0  0  0
 16 15  1  0  0  0  0
 17 16  1  0  0  0  0
 17 19  1  0  0  0  0
 18 17  2  0  0  0  0
 19 52  1  0  0  0  0
 20 16  1  0  0  0  0
 20 21  1  0  0  0  0
 21 22  2  0  0  0  0
 23 21  1  0  0  0  0
 23 56  1  0  0  0  0
 24 26  1  0  0  0  0
 24 57  1  1  0  0  0
 25 24  1  0  0  0  0
 26 27  1  0  0  0  0
 26 60  1  0  0  0  0
 27 28  1  0  0  0  0
 28 29  2  0  0  0  0
 30 28  2  0  0  0  0
 31 36  1  0  0  0  0
 31 28  1  0  0  0  0
 32 31  2  0  0  0  0
 33 34  2  0  0  0  0
 33 32  1  0  0  0  0
 34 35  1  0  0  0  0
 35 65  1  0  0  0  0
 35 36  2  0  0  0  0
 36 66  1  0  0  0  0
 38  2  1  0  0  0  0
 40  4  1  0  0  0  0
 41  5  1  0  0  0  0
 45 10  1  0  0  0  0
 46 11  1  0  0  0  0
 49 12  1  0  0  0  0
 53 20  1  0  0  0  0
 54 20  1  0  0  0  0
 55 23  1  0  0  0  0
 58 25  1  0  0  0  0
 59 26  1  0  0  0  0
 61 27  1  0  0  0  0
 62 32  1  0  0  0  0
 63 33  1  0  0  0  0
 64 34  1  0  0  0  0
M  END
