omegapdb_1z1r_29.xyz
 OpenBabel12161914463D

 66 68  0  0  1  0  0  0  0  0999 V2000
    0.8984   -1.1245    2.0370 C   0  0  2  0  0  0  0  0  0  0  0  0
    0.3627   -2.5801    2.0325 C   0  0  0  0  0  0  0  0  0  0  0  0
   -0.9081   -2.8066    1.2564 C   0  0  0  0  0  0  0  0  0  0  0  0
   -2.1467   -2.8932    1.9018 C   0  0  0  0  0  0  0  0  0  0  0  0
   -3.3276   -2.9537    1.1812 C   0  0  0  0  0  0  0  0  0  0  0  0
   -3.2992   -2.8945   -0.2157 C   0  0  0  0  0  0  0  0  0  0  0  0
   -2.0685   -2.9181   -0.8758 C   0  0  0  0  0  0  0  0  0  0  0  0
   -0.8919   -2.8861   -0.1379 C   0  0  0  0  0  0  0  0  0  0  0  0
   -4.5093   -2.8438   -0.8424 O   0  0  0  0  0  0  0  0  0  0  0  0
   -4.6323   -2.1643   -2.0848 C   0  0  0  0  0  0  0  0  0  0  0  0
   -4.9148   -0.6668   -1.9676 C   0  0  0  0  0  0  0  0  0  0  0  0
   -3.8958    0.1495   -1.1723 C   0  0  0  0  0  0  0  0  0  0  0  0
   -4.2384    0.2012    0.3095 C   0  0  0  0  0  0  0  0  0  0  0  0
   -5.3954    0.0851    0.6860 O   0  0  0  0  0  0  0  0  0  0  0  0
   -3.2572    0.4637    1.2262 N   0  0  0  0  0  0  0  0  0  0  0  0
   -1.8115    0.4952    1.1119 C   0  0  2  0  0  0  0  0  0  0  0  0
   -1.2613    0.2518    2.5276 C   0  0  0  0  0  0  0  0  0  0  0  0
   -1.9439    0.5350    3.4977 O   0  0  0  0  0  0  0  0  0  0  0  0
    0.0414   -0.1616    2.7395 N   0  0  0  0  0  0  0  0  0  0  0  0
   -1.2648    1.8575    0.6135 C   0  0  0  0  0  0  0  0  0  0  0  0
   -1.1791    1.9151   -0.9004 C   0  0  0  0  0  0  0  0  0  0  0  0
   -0.6528    1.0202   -1.5489 O   0  0  0  0  0  0  0  0  0  0  0  0
   -1.7406    3.0023   -1.4947 N   0  0  0  0  0  0  0  0  0  0  0  0
    1.3618   -0.6174    0.6625 C   0  0  2  0  0  0  0  0  0  0  0  0
    2.0847   -1.6791    0.0340 O   0  0  0  0  0  0  0  0  0  0  0  0
    2.2760    0.6129    0.7730 C   0  0  0  0  0  0  0  0  0  0  0  0
    3.6023    0.2183    1.2413 N   0  0  0  0  0  0  0  0  0  0  0  0
    4.7816    1.3637    1.4140 S   0  0  0  0  0  0  0  0  0  0  0  0
    5.9488    0.6634    1.9170 O   0  0  0  0  0  0  0  0  0  0  0  0
    4.1800    2.4757    2.1265 O   0  0  0  0  0  0  0  0  0  0  0  0
    5.1336    1.9054   -0.2399 C   0  0  0  0  0  0  0  0  0  0  0  0
    4.4502    2.9983   -0.7674 C   0  0  0  0  0  0  0  0  0  0  0  0
    4.6975    3.3806   -2.0820 C   0  0  0  0  0  0  0  0  0  0  0  0
    5.6193    2.6761   -2.8540 C   0  0  0  0  0  0  0  0  0  0  0  0
    6.3055    1.5931   -2.3083 C   0  0  0  0  0  0  0  0  0  0  0  0
    6.0706    1.2048   -0.9936 C   0  0  0  0  0  0  0  0  0  0  0  0
    1.8014   -1.1676    2.6602 H   0  0  0  0  0  0  0  0  0  0  0  0
    1.1621   -3.2106    1.6311 H   0  0  0  0  0  0  0  0  0  0  0  0
    0.2153   -2.8749    3.0779 H   0  0  0  0  0  0  0  0  0  0  0  0
   -2.1817   -2.8805    2.9908 H   0  0  0  0  0  0  0  0  0  0  0  0
   -4.2958   -2.9912    1.6740 H   0  0  0  0  0  0  0  0  0  0  0  0
   -2.0082   -2.9748   -1.9586 H   0  0  0  0  0  0  0  0  0  0  0  0
    0.0653   -2.8902   -0.6563 H   0  0  0  0  0  0  0  0  0  0  0  0
   -5.4762   -2.6499   -2.5840 H   0  0  0  0  0  0  0  0  0  0  0  0
   -3.7417   -2.3270   -2.7041 H   0  0  0  0  0  0  0  0  0  0  0  0
   -5.8997   -0.5072   -1.5141 H   0  0  0  0  0  0  0  0  0  0  0  0
   -4.9561   -0.2849   -2.9953 H   0  0  0  0  0  0  0  0  0  0  0  0
   -2.8686   -0.1835   -1.3495 H   0  0  0  0  0  0  0  0  0  0  0  0
   -3.9431    1.1907   -1.5209 H   0  0  0  0  0  0  0  0  0  0  0  0
   -3.5983    0.5519    2.1768 H   0  0  0  0  0  0  0  0  0  0  0  0
   -1.4654   -0.2831    0.4258 H   0  0  0  0  0  0  0  0  0  0  0  0
    0.2039   -0.1513    3.7391 H   0  0  0  0  0  0  0  0  0  0  0  0
   -1.8712    2.6684    1.0269 H   0  0  0  0  0  0  0  0  0  0  0  0
   -0.2378    1.9870    0.9793 H   0  0  0  0  0  0  0  0  0  0  0  0
   -1.5919    3.1194   -2.4859 H   0  0  0  0  0  0  0  0  0  0  0  0
   -2.0338    3.8015   -0.9574 H   0  0  0  0  0  0  0  0  0  0  0  0
    0.5056   -0.3496    0.0337 H   0  0  0  0  0  0  0  0  0  0  0  0
    2.2366   -1.4148   -0.8833 H   0  0  0  0  0  0  0  0  0  0  0  0
    2.3298    1.1114   -0.2079 H   0  0  0  0  0  0  0  0  0  0  0  0
    1.8790    1.3362    1.4900 H   0  0  0  0  0  0  0  0  0  0  0  0
    3.9373   -0.6753    0.9035 H   0  0  0  0  0  0  0  0  0  0  0  0
    3.7410    3.5407   -0.1467 H   0  0  0  0  0  0  0  0  0  0  0  0
    4.1694    4.2304   -2.5050 H   0  0  0  0  0  0  0  0  0  0  0  0
    5.8044    2.9728   -3.8839 H   0  0  0  0  0  0  0  0  0  0  0  0
    7.0298    1.0499   -2.9088 H   0  0  0  0  0  0  0  0  0  0  0  0
    6.6135    0.3766   -0.5454 H   0  0  0  0  0  0  0  0  0  0  0  0
  1 37  1  1  0  0  0
  1 19  1  0  0  0  0
  2  1  1  0  0  0  0
  2 39  1  0  0  0  0
  3  4  1  0  0  0  0
  3  2  1  0  0  0  0
  4 40  1  0  0  0  0
  5 41  1  0  0  0  0
  5  4  2  0  0  0  0
  6  5  1  0  0  0  0
  7  6  2  0  0  0  0
  7  8  1  0  0  0  0
  8  3  2  0  0  0  0
  9  6  1  0  0  0  0
 10 11  1  0  0  0  0
 10  9  1  0  0  0  0
 11 46  1  0  0  0  0
 11 12  1  0  0  0  0
 12 13  1  0  0  0  0
 13 14  2  0  0  0  0
 13 15  1  0  0  0  0
 15 50  1  0  0  0  0
 16 51  1  6  0  0  0
 16 15  1  0  0  0  0
 16 17  1  0  0  0  0
 17 19  1  0  0  0  0
 17 18  2  0  0  0  0
 19 52  1  0  0  0  0
 20 54  1  0  0  0  0
 20 53  1  0  0  0  0
 20 16  1  0  0  0  0
 21 20  1  0  0  0  0
 22 21  2  0  0  0  0
 23 56  1  0  0  0  0
 23 21  1  0  0  0  0
 24 57  1  6  0  0  0
 24 26  1  0  0  0  0
 24  1  1  0  0  0  0
 25 24  1  0  0  0  0
 26 27  1  0  0  0  0
 26 60  1  0  0  0  0
 27 28  1  0  0  0  0
 28 29  2  0  0  0  0
 28 30  2  0  0  0  0
 31 28  1  0  0  0  0
 32 31  1  0  0  0  0
 32 62  1  0  0  0  0
 33 32  2  0  0  0  0
 34 35  2  0  0  0  0
 34 33  1  0  0  0  0
 35 36  1  0  0  0  0
 36 66  1  0  0  0  0
 36 31  2  0  0  0  0
 38  2  1  0  0  0  0
 42  7  1  0  0  0  0
 43  8  1  0  0  0  0
 44 10  1  0  0  0  0
 45 10  1  0  0  0  0
 47 11  1  0  0  0  0
 48 12  1  0  0  0  0
 49 12  1  0  0  0  0
 55 23  1  0  0  0  0
 58 25  1  0  0  0  0
 59 26  1  0  0  0  0
 61 27  1  0  0  0  0
 63 33  1  0  0  0  0
 64 34  1  0  0  0  0
 65 35  1  0  0  0  0
M  END
