omegapdb_2f7p_20.xyz
 OpenBabel12161914463D

 34 35  0  0  1  0  0  0  0  0999 V2000
   -0.8157    0.2817   -0.1163 C   0  0  1  0  0  0  0  0  0  0  0  0
   -0.2354    1.5517    0.2668 N   0  0  0  0  0  0  0  0  0  0  0  0
    0.9900    1.4975    1.0555 C   0  0  0  0  0  0  0  0  0  0  0  0
    2.1819    0.7971    0.4193 C   0  0  0  0  0  0  0  0  0  0  0  0
    2.7475   -0.3392    1.0047 C   0  0  0  0  0  0  0  0  0  0  0  0
    3.8445   -0.9717    0.4257 C   0  0  0  0  0  0  0  0  0  0  0  0
    4.3960   -0.4754   -0.7503 C   0  0  0  0  0  0  0  0  0  0  0  0
    3.8427    0.6553   -1.3431 C   0  0  0  0  0  0  0  0  0  0  0  0
    2.7450    1.2838   -0.7638 C   0  0  0  0  0  0  0  0  0  0  0  0
   -1.0624   -0.6975    1.0421 C   0  0  1  0  0  0  0  0  0  0  0  0
   -1.6077    0.0017    2.1321 O   0  0  0  0  0  0  0  0  0  0  0  0
   -2.1231   -1.6967    0.4962 C   0  0  1  0  0  0  0  0  0  0  0  0
   -3.0307   -2.0315    1.5222 O   0  0  0  0  0  0  0  0  0  0  0  0
   -2.7892   -0.9621   -0.7002 C   0  0  1  0  0  0  0  0  0  0  0  0
   -4.1929   -1.0230   -0.5635 O   0  0  0  0  0  0  0  0  0  0  0  0
   -2.2349    0.4629   -0.6499 C   0  0  2  0  0  0  0  0  0  0  0  0
   -2.3691    1.3040   -2.2535 S   0  0  0  0  0  0  0  0  0  0  0  0
   -0.2015   -0.2320   -0.8779 H   0  0  0  0  0  0  0  0  0  0  0  0
   -0.0918    2.1066   -0.5733 H   0  0  0  0  0  0  0  0  0  0  0  0
    0.7496    1.0217    2.0127 H   0  0  0  0  0  0  0  0  0  0  0  0
    1.2478    2.5367    1.2998 H   0  0  0  0  0  0  0  0  0  0  0  0
    2.3283   -0.7373    1.9283 H   0  0  0  0  0  0  0  0  0  0  0  0
    4.2683   -1.8552    0.8974 H   0  0  0  0  0  0  0  0  0  0  0  0
    5.2532   -0.9674   -1.2038 H   0  0  0  0  0  0  0  0  0  0  0  0
    4.2692    1.0537   -2.2611 H   0  0  0  0  0  0  0  0  0  0  0  0
    2.3297    2.1755   -1.2328 H   0  0  0  0  0  0  0  0  0  0  0  0
   -0.1382   -1.2226    1.3327 H   0  0  0  0  0  0  0  0  0  0  0  0
   -2.2664   -0.6105    2.5068 H   0  0  0  0  0  0  0  0  0  0  0  0
   -1.6347   -2.6129    0.1434 H   0  0  0  0  0  0  0  0  0  0  0  0
   -3.9191   -1.8349    1.1796 H   0  0  0  0  0  0  0  0  0  0  0  0
   -2.4711   -1.4509   -1.6308 H   0  0  0  0  0  0  0  0  0  0  0  0
   -4.5855   -0.5639   -1.3202 H   0  0  0  0  0  0  0  0  0  0  0  0
   -2.7931    1.0292    0.0975 H   0  0  0  0  0  0  0  0  0  0  0  0
   -2.6316    2.5253   -1.7665 H   0  0  0  0  0  0  0  0  0  0  0  0
  1 16  1  6  0  0  0
  1  2  1  0  0  0  0
  2  3  1  0  0  0  0
  3 21  1  0  0  0  0
  3 20  1  0  0  0  0
  4  5  2  0  0  0  0
  4  3  1  0  0  0  0
  5 22  1  0  0  0  0
  6 23  1  0  0  0  0
  6  5  1  0  0  0  0
  7  6  2  0  0  0  0
  8  9  2  0  0  0  0
  8  7  1  0  0  0  0
  9  4  1  0  0  0  0
 10  1  1  6  0  0  0
 10 27  1  0  0  0  0
 10 11  1  0  0  0  0
 11 28  1  0  0  0  0
 12 14  1  6  0  0  0
 12 10  1  0  0  0  0
 12 13  1  0  0  0  0
 14 16  1  6  0  0  0
 14 15  1  0  0  0  0
 16 33  1  1  0  0  0
 17 34  1  0  0  0  0
 17 16  1  0  0  0  0
 18  1  1  0  0  0  0
 19  2  1  0  0  0  0
 24  7  1  0  0  0  0
 25  8  1  0  0  0  0
 26  9  1  0  0  0  0
 29 12  1  0  0  0  0
 30 13  1  0  0  0  0
 31 14  1  0  0  0  0
 32 15  1  0  0  0  0
M  END
