omegapdb_1v2k_14.xyz
 OpenBabel12161914463D

 61 65  0  0  0  0  0  0  0  0999 V2000
    7.8967    2.2874   -2.0996 N   0  0  0  0  0  0  0  0  0  0  0  0
    7.0695    1.6144   -2.8996 C   0  0  0  0  0  0  0  0  0  0  0  0
    5.8529    1.0759   -2.5116 C   0  0  0  0  0  0  0  0  0  0  0  0
    5.4182    1.2393   -1.1817 C   0  0  0  0  0  0  0  0  0  0  0  0
    6.2936    1.9374   -0.3284 C   0  0  0  0  0  0  0  0  0  0  0  0
    7.4848    2.4276   -0.8380 C   0  0  0  0  0  0  0  0  0  0  0  0
    4.2238    0.7219   -0.7544 N   0  0  0  0  0  0  0  0  0  0  0  0
    3.5569    1.1157    0.4725 C   0  0  0  0  0  0  0  0  0  0  0  0
    3.2461   -0.1074    1.3421 C   0  0  0  0  0  0  0  0  0  0  0  0
    2.7703   -1.2789    0.4596 C   0  0  0  0  0  0  0  0  0  0  0  0
    2.2919   -0.7978   -0.9193 C   0  0  0  0  0  0  0  0  0  0  0  0
    3.4631   -0.1379   -1.6475 C   0  0  0  0  0  0  0  0  0  0  0  0
    1.7932   -2.2433    1.1179 C   0  0  0  0  0  0  0  0  0  0  0  0
    2.0035   -3.4467    1.0570 O   0  0  0  0  0  0  0  0  0  0  0  0
    0.6772   -1.7555    1.7711 N   0  0  0  0  0  0  0  0  0  0  0  0
   -0.0032   -0.5021    1.4439 C   0  0  0  0  0  0  0  0  0  0  0  0
   -1.1526   -0.7560    0.4555 C   0  0  0  0  0  0  0  0  0  0  0  0
   -2.0737   -1.7972    0.9268 N   0  0  0  0  0  0  0  0  0  0  0  0
   -1.3712   -3.0294    1.3160 C   0  0  0  0  0  0  0  0  0  0  0  0
   -0.2482   -2.7509    2.3170 C   0  0  0  0  0  0  0  0  0  0  0  0
   -3.2657   -1.3089    2.0192 S   0  0  0  0  0  0  0  0  0  0  0  0
   -4.0762   -2.4874    2.2874 O   0  0  0  0  0  0  0  0  0  0  0  0
   -2.6694   -0.5648    3.1243 O   0  0  0  0  0  0  0  0  0  0  0  0
   -4.2135   -0.1688    1.0473 C   0  0  0  0  0  0  0  0  0  0  0  0
   -4.8871   -0.6417   -0.0457 C   0  0  0  0  0  0  0  0  0  0  0  0
   -5.6233    0.2613   -0.8603 C   0  0  0  0  0  0  0  0  0  0  0  0
   -5.6589    1.6368   -0.5165 C   0  0  0  0  0  0  0  0  0  0  0  0
   -4.9591    2.0795    0.6421 C   0  0  0  0  0  0  0  0  0  0  0  0
   -4.2493    1.1972    1.4126 C   0  0  0  0  0  0  0  0  0  0  0  0
   -6.3916    2.5389   -1.3359 C   0  0  0  0  0  0  0  0  0  0  0  0
   -7.0492    2.0743   -2.4411 C   0  0  0  0  0  0  0  0  0  0  0  0
   -7.0243    0.7035   -2.7961 C   0  0  0  0  0  0  0  0  0  0  0  0
   -6.3251   -0.1753   -2.0141 C   0  0  0  0  0  0  0  0  0  0  0  0
   -7.9448    3.1759   -3.4517 Cl  0  0  0  0  0  0  0  0  0  0  0  0
    7.4005    1.4885   -3.9314 H   0  0  0  0  0  0  0  0  0  0  0  0
    5.2544    0.5459   -3.2430 H   0  0  0  0  0  0  0  0  0  0  0  0
    6.0778    2.0815    0.7246 H   0  0  0  0  0  0  0  0  0  0  0  0
    8.1568    2.9749   -0.1765 H   0  0  0  0  0  0  0  0  0  0  0  0
    4.1708    1.8296    1.0187 H   0  0  0  0  0  0  0  0  0  0  0  0
    2.6236    1.6411    0.2223 H   0  0  0  0  0  0  0  0  0  0  0  0
    2.5126    0.1664    2.1066 H   0  0  0  0  0  0  0  0  0  0  0  0
    4.1481   -0.4160    1.8832 H   0  0  0  0  0  0  0  0  0  0  0  0
    3.6353   -1.9190    0.2658 H   0  0  0  0  0  0  0  0  0  0  0  0
    1.9278   -1.6396   -1.5189 H   0  0  0  0  0  0  0  0  0  0  0  0
    1.4658   -0.0810   -0.8427 H   0  0  0  0  0  0  0  0  0  0  0  0
    3.0997    0.4329   -2.5150 H   0  0  0  0  0  0  0  0  0  0  0  0
    4.1356   -0.9185   -2.0298 H   0  0  0  0  0  0  0  0  0  0  0  0
    0.6942    0.2352    1.0478 H   0  0  0  0  0  0  0  0  0  0  0  0
   -0.4234   -0.1069    2.3723 H   0  0  0  0  0  0  0  0  0  0  0  0
   -0.7572   -1.1056   -0.5071 H   0  0  0  0  0  0  0  0  0  0  0  0
   -1.7135    0.1625    0.2591 H   0  0  0  0  0  0  0  0  0  0  0  0
   -2.1087   -3.7285    1.7193 H   0  0  0  0  0  0  0  0  0  0  0  0
   -0.9480   -3.4608    0.4016 H   0  0  0  0  0  0  0  0  0  0  0  0
   -0.6755   -2.3495    3.2424 H   0  0  0  0  0  0  0  0  0  0  0  0
    0.3195   -3.6558    2.5319 H   0  0  0  0  0  0  0  0  0  0  0  0
   -4.8659   -1.6998   -0.2906 H   0  0  0  0  0  0  0  0  0  0  0  0
   -4.9923    3.1331    0.9046 H   0  0  0  0  0  0  0  0  0  0  0  0
   -3.7095    1.5181    2.2984 H   0  0  0  0  0  0  0  0  0  0  0  0
   -6.4261    3.5942   -1.0801 H   0  0  0  0  0  0  0  0  0  0  0  0
   -7.5613    0.3723   -3.6795 H   0  0  0  0  0  0  0  0  0  0  0  0
   -6.2967   -1.2323   -2.2711 H   0  0  0  0  0  0  0  0  0  0  0  0
  1  6  2  0  0  0  0
  2  3  2  0  0  0  0
  2  1  1  0  0  0  0
  3  4  1  0  0  0  0
  4  7  1  0  0  0  0
  4  5  2  0  0  0  0
  5 37  1  0  0  0  0
  6  5  1  0  0  0  0
  6 38  1  0  0  0  0
  7  8  1  0  0  0  0
  8 39  1  0  0  0  0
  8  9  1  0  0  0  0
  9 42  1  0  0  0  0
  9 41  1  0  0  0  0
 10 13  1  0  0  0  0
 10  9  1  0  0  0  0
 11 45  1  0  0  0  0
 11 10  1  0  0  0  0
 12 11  1  0  0  0  0
 12  7  1  0  0  0  0
 13 15  1  0  0  0  0
 14 13  2  0  0  0  0
 15 20  1  0  0  0  0
 16 15  1  0  0  0  0
 16 49  1  0  0  0  0
 17 18  1  0  0  0  0
 17 16  1  0  0  0  0
 18 19  1  0  0  0  0
 18 21  1  0  0  0  0
 19 52  1  0  0  0  0
 19 20  1  0  0  0  0
 20 55  1  0  0  0  0
 20 54  1  0  0  0  0
 21 22  2  0  0  0  0
 21 23  2  0  0  0  0
 24 29  1  0  0  0  0
 24 21  1  0  0  0  0
 25 24  2  0  0  0  0
 26 27  1  0  0  0  0
 26 25  1  0  0  0  0
 27 28  1  0  0  0  0
 28 57  1  0  0  0  0
 28 29  2  0  0  0  0
 29 58  1  0  0  0  0
 30 59  1  0  0  0  0
 30 27  2  0  0  0  0
 31 30  1  0  0  0  0
 32 31  2  0  0  0  0
 32 33  1  0  0  0  0
 33 26  2  0  0  0  0
 34 31  1  0  0  0  0
 35  2  1  0  0  0  0
 36  3  1  0  0  0  0
 40  8  1  0  0  0  0
 43 10  1  0  0  0  0
 44 11  1  0  0  0  0
 46 12  1  0  0  0  0
 47 12  1  0  0  0  0
 48 16  1  0  0  0  0
 50 17  1  0  0  0  0
 51 17  1  0  0  0  0
 53 19  1  0  0  0  0
 56 25  1  0  0  0  0
 60 32  1  0  0  0  0
 61 33  1  0  0  0  0
M  END
