omegapdb_2f7p_11.xyz
 OpenBabel12161914463D

 34 35  0  0  1  0  0  0  0  0999 V2000
   -0.7390   -0.6194    0.3559 C   0  0  1  0  0  0  0  0  0  0  0  0
    0.0310   -0.2934    1.5606 N   0  0  0  0  0  0  0  0  0  0  0  0
    1.0216    0.7742    1.4794 C   0  0  0  0  0  0  0  0  0  0  0  0
    2.1558    0.5752    0.4873 C   0  0  0  0  0  0  0  0  0  0  0  0
    2.6615   -0.6875    0.1709 C   0  0  0  0  0  0  0  0  0  0  0  0
    3.7116   -0.8318   -0.7304 C   0  0  0  0  0  0  0  0  0  0  0  0
    4.2768    0.2869   -1.3351 C   0  0  0  0  0  0  0  0  0  0  0  0
    3.7842    1.5503   -1.0271 C   0  0  0  0  0  0  0  0  0  0  0  0
    2.7361    1.6890   -0.1232 C   0  0  0  0  0  0  0  0  0  0  0  0
   -1.8787   -1.6187    0.7447 C   0  0  1  0  0  0  0  0  0  0  0  0
   -2.1932   -1.5277    2.1217 O   0  0  0  0  0  0  0  0  0  0  0  0
   -3.1284   -1.2079   -0.0896 C   0  0  1  0  0  0  0  0  0  0  0  0
   -4.1186   -0.6284    0.7329 O   0  0  0  0  0  0  0  0  0  0  0  0
   -2.6281   -0.1178   -1.0521 C   0  0  1  0  0  0  0  0  0  0  0  0
   -3.6361    0.7694   -1.4406 O   0  0  0  0  0  0  0  0  0  0  0  0
   -1.4882    0.5570   -0.2800 C   0  0  2  0  0  0  0  0  0  0  0  0
   -0.4972    1.6034   -1.3859 S   0  0  0  0  0  0  0  0  0  0  0  0
   -0.0992   -1.0753   -0.4148 H   0  0  0  0  0  0  0  0  0  0  0  0
    0.5070   -1.1322    1.8853 H   0  0  0  0  0  0  0  0  0  0  0  0
    1.4199    0.9064    2.4951 H   0  0  0  0  0  0  0  0  0  0  0  0
    0.5032    1.7118    1.2589 H   0  0  0  0  0  0  0  0  0  0  0  0
    2.2402   -1.5821    0.6270 H   0  0  0  0  0  0  0  0  0  0  0  0
    4.0836   -1.8267   -0.9635 H   0  0  0  0  0  0  0  0  0  0  0  0
    5.0948    0.1726   -2.0417 H   0  0  0  0  0  0  0  0  0  0  0  0
    4.2141    2.4334   -1.4949 H   0  0  0  0  0  0  0  0  0  0  0  0
    2.3506    2.6812    0.1042 H   0  0  0  0  0  0  0  0  0  0  0  0
   -1.5812   -2.6502    0.5260 H   0  0  0  0  0  0  0  0  0  0  0  0
   -1.5678   -0.8655    2.4801 H   0  0  0  0  0  0  0  0  0  0  0  0
   -3.5596   -2.0574   -0.6318 H   0  0  0  0  0  0  0  0  0  0  0  0
   -3.8000   -0.7672    1.6433 H   0  0  0  0  0  0  0  0  0  0  0  0
   -2.2151   -0.5791   -1.9591 H   0  0  0  0  0  0  0  0  0  0  0  0
   -4.2161    0.8529   -0.6659 H   0  0  0  0  0  0  0  0  0  0  0  0
   -1.8990    1.1771    0.5250 H   0  0  0  0  0  0  0  0  0  0  0  0
   -1.5465    2.3279   -1.8070 H   0  0  0  0  0  0  0  0  0  0  0  0
  1 16  1  6  0  0  0
  1 10  1  0  0  0  0
  1  2  1  0  0  0  0
  2 19  1  0  0  0  0
  3  2  1  0  0  0  0
  3 20  1  0  0  0  0
  4  3  1  0  0  0  0
  5  4  1  0  0  0  0
  5 22  1  0  0  0  0
  6  5  2  0  0  0  0
  7  8  2  0  0  0  0
  7  6  1  0  0  0  0
  8  9  1  0  0  0  0
  9 26  1  0  0  0  0
  9  4  2  0  0  0  0
 10 12  1  6  0  0  0
 10 11  1  0  0  0  0
 11 28  1  0  0  0  0
 12 14  1  6  0  0  0
 12 13  1  0  0  0  0
 13 30  1  0  0  0  0
 14 16  1  1  0  0  0
 15 14  1  0  0  0  0
 15 32  1  0  0  0  0
 16 33  1  1  0  0  0
 17 16  1  0  0  0  0
 18  1  1  0  0  0  0
 21  3  1  0  0  0  0
 23  6  1  0  0  0  0
 24  7  1  0  0  0  0
 25  8  1  0  0  0  0
 27 10  1  0  0  0  0
 29 12  1  0  0  0  0
 31 14  1  0  0  0  0
 34 17  1  0  0  0  0
M  END
