omegapdb_1z1r_14.xyz
 OpenBabel12161914463D

 66 68  0  0  1  0  0  0  0  0999 V2000
    0.7505   -0.5230   -0.5087 C   0  0  2  0  0  0  0  0  0  0  0  0
    0.5547   -1.5347   -1.6628 C   0  0  0  0  0  0  0  0  0  0  0  0
   -0.6196   -2.4527   -1.4141 C   0  0  0  0  0  0  0  0  0  0  0  0
   -1.6899   -2.4942   -2.3084 C   0  0  0  0  0  0  0  0  0  0  0  0
   -2.8758   -3.1366   -1.9742 C   0  0  0  0  0  0  0  0  0  0  0  0
   -3.0164   -3.6810   -0.7042 C   0  0  0  0  0  0  0  0  0  0  0  0
   -1.9205   -3.7633    0.1515 C   0  0  0  0  0  0  0  0  0  0  0  0
   -0.7187   -3.1765   -0.2237 C   0  0  0  0  0  0  0  0  0  0  0  0
   -4.2691   -4.0555   -0.2780 O   0  0  0  0  0  0  0  0  0  0  0  0
   -4.8005   -3.1381    0.6808 C   0  0  0  0  0  0  0  0  0  0  0  0
   -4.9344   -1.7213    0.1126 C   0  0  0  0  0  0  0  0  0  0  0  0
   -5.1584   -0.6531    1.1845 C   0  0  0  0  0  0  0  0  0  0  0  0
   -3.9229   -0.4366    2.0415 C   0  0  0  0  0  0  0  0  0  0  0  0
   -3.8543   -0.8760    3.1767 O   0  0  0  0  0  0  0  0  0  0  0  0
   -2.8358    0.2305    1.5106 N   0  0  0  0  0  0  0  0  0  0  0  0
   -2.7213    0.9929    0.2763 C   0  0  2  0  0  0  0  0  0  0  0  0
   -1.4508    0.6716   -0.5296 C   0  0  0  0  0  0  0  0  0  0  0  0
   -1.3177    1.1834   -1.6452 O   0  0  0  0  0  0  0  0  0  0  0  0
   -0.5201   -0.0808    0.0853 N   0  0  0  0  0  0  0  0  0  0  0  0
   -2.7201    2.5124    0.5072 C   0  0  0  0  0  0  0  0  0  0  0  0
   -4.0660    3.0688    0.9445 C   0  0  0  0  0  0  0  0  0  0  0  0
   -5.1299    2.5040    0.7432 O   0  0  0  0  0  0  0  0  0  0  0  0
   -4.0035    4.2785    1.5617 N   0  0  0  0  0  0  0  0  0  0  0  0
    1.6407    0.6758   -0.9070 C   0  0  2  0  0  0  0  0  0  0  0  0
    1.3234    1.2202   -2.1656 O   0  0  0  0  0  0  0  0  0  0  0  0
    3.1159    0.2871   -0.9680 C   0  0  0  0  0  0  0  0  0  0  0  0
    3.8908    1.4690   -1.3329 N   0  0  0  0  0  0  0  0  0  0  0  0
    5.5098    1.2551   -1.6643 S   0  0  0  0  0  0  0  0  0  0  0  0
    5.7202   -0.0960   -2.1608 O   0  0  0  0  0  0  0  0  0  0  0  0
    5.9025    2.4198   -2.4379 O   0  0  0  0  0  0  0  0  0  0  0  0
    6.2581    1.3627   -0.0650 C   0  0  0  0  0  0  0  0  0  0  0  0
    6.4206    0.2065    0.6924 C   0  0  0  0  0  0  0  0  0  0  0  0
    7.0008    0.3026    1.9529 C   0  0  0  0  0  0  0  0  0  0  0  0
    7.4199    1.5401    2.4369 C   0  0  0  0  0  0  0  0  0  0  0  0
    7.2623    2.6864    1.6611 C   0  0  0  0  0  0  0  0  0  0  0  0
    6.6824    2.6029    0.3991 C   0  0  0  0  0  0  0  0  0  0  0  0
    1.2568   -1.0299    0.3197 H   0  0  0  0  0  0  0  0  0  0  0  0
    1.4794   -2.1181   -1.7789 H   0  0  0  0  0  0  0  0  0  0  0  0
    0.4024   -0.9804   -2.5937 H   0  0  0  0  0  0  0  0  0  0  0  0
   -1.6101   -1.9799   -3.2625 H   0  0  0  0  0  0  0  0  0  0  0  0
   -3.7324   -3.1324   -2.6436 H   0  0  0  0  0  0  0  0  0  0  0  0
   -2.0282   -4.2524    1.1155 H   0  0  0  0  0  0  0  0  0  0  0  0
    0.1259   -3.2220    0.4625 H   0  0  0  0  0  0  0  0  0  0  0  0
   -5.7776   -3.5481    0.9593 H   0  0  0  0  0  0  0  0  0  0  0  0
   -4.1701   -3.1350    1.5815 H   0  0  0  0  0  0  0  0  0  0  0  0
   -5.7540   -1.7052   -0.6155 H   0  0  0  0  0  0  0  0  0  0  0  0
   -4.0195   -1.4700   -0.4371 H   0  0  0  0  0  0  0  0  0  0  0  0
   -5.9472   -0.9618    1.8775 H   0  0  0  0  0  0  0  0  0  0  0  0
   -5.4615    0.2950    0.7309 H   0  0  0  0  0  0  0  0  0  0  0  0
   -2.1812    0.4715    2.2468 H   0  0  0  0  0  0  0  0  0  0  0  0
   -3.5669    0.7579   -0.3719 H   0  0  0  0  0  0  0  0  0  0  0  0
   -0.8670   -0.6374    0.8568 H   0  0  0  0  0  0  0  0  0  0  0  0
   -2.4455    2.9977   -0.4358 H   0  0  0  0  0  0  0  0  0  0  0  0
   -1.9405    2.7787    1.2327 H   0  0  0  0  0  0  0  0  0  0  0  0
   -3.1537    4.8170    1.5929 H   0  0  0  0  0  0  0  0  0  0  0  0
   -4.8737    4.7422    1.7717 H   0  0  0  0  0  0  0  0  0  0  0  0
    1.5141    1.4431   -0.1250 H   0  0  0  0  0  0  0  0  0  0  0  0
    0.3557    1.3788   -2.1610 H   0  0  0  0  0  0  0  0  0  0  0  0
    3.2739   -0.5162   -1.7003 H   0  0  0  0  0  0  0  0  0  0  0  0
    3.4624   -0.0731    0.0074 H   0  0  0  0  0  0  0  0  0  0  0  0
    3.4648    2.0345   -2.0638 H   0  0  0  0  0  0  0  0  0  0  0  0
    6.1159   -0.7549    0.2870 H   0  0  0  0  0  0  0  0  0  0  0  0
    7.1310   -0.5909    2.5568 H   0  0  0  0  0  0  0  0  0  0  0  0
    7.8737    1.6116    3.4224 H   0  0  0  0  0  0  0  0  0  0  0  0
    7.5959    3.6493    2.0378 H   0  0  0  0  0  0  0  0  0  0  0  0
    6.5705    3.4795   -0.2334 H   0  0  0  0  0  0  0  0  0  0  0  0
  1 19  1  0  0  0  0
  1 37  1  1  0  0  0
  2  3  1  0  0  0  0
  2  1  1  0  0  0  0
  3  8  2  0  0  0  0
  4  5  2  0  0  0  0
  4  3  1  0  0  0  0
  5  6  1  0  0  0  0
  6  9  1  0  0  0  0
  6  7  2  0  0  0  0
  7 42  1  0  0  0  0
  8  7  1  0  0  0  0
  8 43  1  0  0  0  0
  9 10  1  0  0  0  0
 10 44  1  0  0  0  0
 10 45  1  0  0  0  0
 11 10  1  0  0  0  0
 11 12  1  0  0  0  0
 12 48  1  0  0  0  0
 12 13  1  0  0  0  0
 13 14  2  0  0  0  0
 15 13  1  0  0  0  0
 15 50  1  0  0  0  0
 16 51  1  6  0  0  0
 16 20  1  0  0  0  0
 16 15  1  0  0  0  0
 17 19  1  0  0  0  0
 17 16  1  0  0  0  0
 18 17  2  0  0  0  0
 19 52  1  0  0  0  0
 20 21  1  0  0  0  0
 20 54  1  0  0  0  0
 21 23  1  0  0  0  0
 22 21  2  0  0  0  0
 23 55  1  0  0  0  0
 23 56  1  0  0  0  0
 24  1  1  0  0  0  0
 24 57  1  1  0  0  0
 25 58  1  0  0  0  0
 25 24  1  0  0  0  0
 26 24  1  0  0  0  0
 26 60  1  0  0  0  0
 27 26  1  0  0  0  0
 28 27  1  0  0  0  0
 28 31  1  0  0  0  0
 29 28  2  0  0  0  0
 30 28  2  0  0  0  0
 31 36  2  0  0  0  0
 31 32  1  0  0  0  0
 32 33  2  0  0  0  0
 33 34  1  0  0  0  0
 33 63  1  0  0  0  0
 34 64  1  0  0  0  0
 35 65  1  0  0  0  0
 35 34  2  0  0  0  0
 36 35  1  0  0  0  0
 38  2  1  0  0  0  0
 39  2  1  0  0  0  0
 40  4  1  0  0  0  0
 41  5  1  0  0  0  0
 46 11  1  0  0  0  0
 47 11  1  0  0  0  0
 49 12  1  0  0  0  0
 53 20  1  0  0  0  0
 59 26  1  0  0  0  0
 61 27  1  0  0  0  0
 62 32  1  0  0  0  0
 66 36  1  0  0  0  0
M  END
