omegapdb_1qxw_21.xyz
 OpenBabel12161914463D

 36 36  0  0  1  0  0  0  0  0999 V2000
    4.6853    0.9096   -0.2706 C   0  0  0  0  0  0  0  0  0  0  0  0
    3.5679    1.6384   -0.9713 C   0  0  0  0  0  0  0  0  0  0  0  0
    3.4541    0.1645   -0.6783 C   0  0  0  0  0  0  0  0  0  0  0  0
    2.5477   -0.3513    0.3060 N   0  0  0  0  0  0  0  0  0  0  0  0
    1.1466   -0.2240   -0.0720 C   0  0  0  0  0  0  0  0  0  0  0  0
    0.3213   -0.9671    0.9724 C   0  0  0  0  0  0  0  0  0  0  0  0
   -1.1983   -0.9161    0.7523 C   0  0  1  0  0  0  0  0  0  0  0  0
   -1.7586   -1.6619    1.8815 N   0  0  0  0  0  0  0  0  0  0  0  0
   -1.7723    0.5058    0.7628 C   0  0  0  0  0  0  0  0  0  0  0  0
   -3.1925    0.5919    0.1797 C   0  0  0  0  0  0  0  0  0  0  0  0
   -3.2407    0.9444   -1.3123 C   0  0  0  0  0  0  0  0  0  0  0  0
   -2.5159   -0.0342   -2.2341 C   0  0  0  0  0  0  0  0  0  0  0  0
    0.6230   -0.4154    2.2365 O   0  0  0  0  0  0  0  0  0  0  0  0
    0.6825   -2.3359    0.9111 O   0  0  0  0  0  0  0  0  0  0  0  0
    4.8332    1.1102    0.7877 H   0  0  0  0  0  0  0  0  0  0  0  0
    5.6064    0.7248   -0.8167 H   0  0  0  0  0  0  0  0  0  0  0  0
    2.9651    2.3264   -0.3809 H   0  0  0  0  0  0  0  0  0  0  0  0
    3.7132    1.9416   -2.0035 H   0  0  0  0  0  0  0  0  0  0  0  0
    3.5639   -0.5023   -1.5328 H   0  0  0  0  0  0  0  0  0  0  0  0
    2.6886    0.0995    1.2063 H   0  0  0  0  0  0  0  0  0  0  0  0
    1.0027   -0.7097   -1.0446 H   0  0  0  0  0  0  0  0  0  0  0  0
    0.8268    0.8240   -0.1637 H   0  0  0  0  0  0  0  0  0  0  0  0
   -1.4150   -1.3968   -0.2173 H   0  0  0  0  0  0  0  0  0  0  0  0
   -2.7687   -1.5651    1.9193 H   0  0  0  0  0  0  0  0  0  0  0  0
   -1.5416   -2.6497    1.7828 H   0  0  0  0  0  0  0  0  0  0  0  0
   -1.1328    1.1981    0.2006 H   0  0  0  0  0  0  0  0  0  0  0  0
   -1.7659    0.8544    1.8022 H   0  0  0  0  0  0  0  0  0  0  0  0
   -3.7598    1.3513    0.7315 H   0  0  0  0  0  0  0  0  0  0  0  0
   -3.7171   -0.3615    0.3450 H   0  0  0  0  0  0  0  0  0  0  0  0
   -4.2910    1.0165   -1.6193 H   0  0  0  0  0  0  0  0  0  0  0  0
   -2.8133    1.9464   -1.4515 H   0  0  0  0  0  0  0  0  0  0  0  0
   -2.8887   -1.0584   -2.1076 H   0  0  0  0  0  0  0  0  0  0  0  0
   -1.4365   -0.0435   -2.0424 H   0  0  0  0  0  0  0  0  0  0  0  0
   -2.6575    0.2417   -3.2841 H   0  0  0  0  0  0  0  0  0  0  0  0
   -0.0108   -0.8663    2.8255 H   0  0  0  0  0  0  0  0  0  0  0  0
    1.6489   -2.3303    1.0065 H   0  0  0  0  0  0  0  0  0  0  0  0
  1 15  1  0  0  0  0
  2  3  1  0  0  0  0
  2 17  1  0  0  0  0
  2  1  1  0  0  0  0
  3  1  1  0  0  0  0
  3  4  1  0  0  0  0
  4 20  1  0  0  0  0
  5  4  1  0  0  0  0
  5  6  1  0  0  0  0
  6 13  1  0  0  0  0
  7 23  1  6  0  0  0
  7  9  1  0  0  0  0
  7  6  1  0  0  0  0
  7  8  1  0  0  0  0
  8 24  1  0  0  0  0
  9 27  1  0  0  0  0
 10 29  1  0  0  0  0
 10 28  1  0  0  0  0
 10  9  1  0  0  0  0
 11 10  1  0  0  0  0
 12 32  1  0  0  0  0
 12 33  1  0  0  0  0
 12 11  1  0  0  0  0
 13 35  1  0  0  0  0
 14  6  1  0  0  0  0
 14 36  1  0  0  0  0
 16  1  1  0  0  0  0
 18  2  1  0  0  0  0
 19  3  1  0  0  0  0
 21  5  1  0  0  0  0
 22  5  1  0  0  0  0
 25  8  1  0  0  0  0
 26  9  1  0  0  0  0
 30 11  1  0  0  0  0
 31 11  1  0  0  0  0
 34 12  1  0  0  0  0
M  END
