omegapdb_2f7p_18.xyz
 OpenBabel12161914463D

 34 35  0  0  1  0  0  0  0  0999 V2000
   -1.1927   -1.0815   -0.0159 C   0  0  1  0  0  0  0  0  0  0  0  0
    0.2512   -0.9832    0.0463 N   0  0  0  0  0  0  0  0  0  0  0  0
    0.8424    0.2552    0.5436 C   0  0  0  0  0  0  0  0  0  0  0  0
    2.3214    0.3287    0.2319 C   0  0  0  0  0  0  0  0  0  0  0  0
    2.8428   -0.2547   -0.9227 C   0  0  0  0  0  0  0  0  0  0  0  0
    4.1948   -0.1357   -1.2265 C   0  0  0  0  0  0  0  0  0  0  0  0
    5.0454    0.5653   -0.3766 C   0  0  0  0  0  0  0  0  0  0  0  0
    4.5351    1.1451    0.7812 C   0  0  0  0  0  0  0  0  0  0  0  0
    3.1812    1.0252    1.0804 C   0  0  0  0  0  0  0  0  0  0  0  0
   -2.0403   -0.7207    1.2233 C   0  0  1  0  0  0  0  0  0  0  0  0
   -1.7166    0.5268    1.8170 O   0  0  0  0  0  0  0  0  0  0  0  0
   -3.4510   -0.6286    0.6269 C   0  0  1  0  0  0  0  0  0  0  0  0
   -4.3752    0.0088    1.4791 O   0  0  0  0  0  0  0  0  0  0  0  0
   -3.2217    0.1669   -0.6783 C   0  0  1  0  0  0  0  0  0  0  0  0
   -3.1554    1.5526   -0.3432 O   0  0  0  0  0  0  0  0  0  0  0  0
   -1.8232   -0.2525   -1.1699 C   0  0  2  0  0  0  0  0  0  0  0  0
   -1.9152   -1.1732   -2.7322 S   0  0  0  0  0  0  0  0  0  0  0  0
   -1.4217   -2.1374   -0.2189 H   0  0  0  0  0  0  0  0  0  0  0  0
    0.6057   -1.7663    0.5868 H   0  0  0  0  0  0  0  0  0  0  0  0
    0.6847    0.3879    1.6241 H   0  0  0  0  0  0  0  0  0  0  0  0
    0.3347    1.0962    0.0519 H   0  0  0  0  0  0  0  0  0  0  0  0
    2.1776   -0.8113   -1.5775 H   0  0  0  0  0  0  0  0  0  0  0  0
    4.5849   -0.5939   -2.1325 H   0  0  0  0  0  0  0  0  0  0  0  0
    6.1012    0.6594   -0.6178 H   0  0  0  0  0  0  0  0  0  0  0  0
    5.1926    1.6929    1.4526 H   0  0  0  0  0  0  0  0  0  0  0  0
    2.7888    1.4799    1.9884 H   0  0  0  0  0  0  0  0  0  0  0  0
   -1.9588   -1.4738    2.0139 H   0  0  0  0  0  0  0  0  0  0  0  0
   -1.9254    1.2119    1.1547 H   0  0  0  0  0  0  0  0  0  0  0  0
   -3.8341   -1.6256    0.3825 H   0  0  0  0  0  0  0  0  0  0  0  0
   -3.8386    0.4380    2.1649 H   0  0  0  0  0  0  0  0  0  0  0  0
   -4.0080   -0.0096   -1.4223 H   0  0  0  0  0  0  0  0  0  0  0  0
   -3.9657    1.7289    0.1621 H   0  0  0  0  0  0  0  0  0  0  0  0
   -1.2536    0.6633   -1.3333 H   0  0  0  0  0  0  0  0  0  0  0  0
   -0.5875   -1.2850   -2.8885 H   0  0  0  0  0  0  0  0  0  0  0  0
  1 16  1  6  0  0  0
  1  2  1  0  0  0  0
  2  3  1  0  0  0  0
  2 19  1  0  0  0  0
  3 20  1  0  0  0  0
  4  3  1  0  0  0  0
  4  9  2  0  0  0  0
  5  4  1  0  0  0  0
  6  5  2  0  0  0  0
  6  7  1  0  0  0  0
  7  8  2  0  0  0  0
  8  9  1  0  0  0  0
  8 25  1  0  0  0  0
  9 26  1  0  0  0  0
 10  1  1  6  0  0  0
 10 11  1  0  0  0  0
 10 27  1  0  0  0  0
 12 14  1  6  0  0  0
 12 10  1  0  0  0  0
 12 13  1  0  0  0  0
 13 30  1  0  0  0  0
 14 16  1  6  0  0  0
 14 15  1  0  0  0  0
 15 32  1  0  0  0  0
 16 33  1  6  0  0  0
 17 16  1  0  0  0  0
 18  1  1  0  0  0  0
 21  3  1  0  0  0  0
 22  5  1  0  0  0  0
 23  6  1  0  0  0  0
 24  7  1  0  0  0  0
 28 11  1  0  0  0  0
 29 12  1  0  0  0  0
 31 14  1  0  0  0  0
 34 17  1  0  0  0  0
M  END
