omegapdb_1z1r_18.xyz
 OpenBabel12161914463D

 66 68  0  0  1  0  0  0  0  0999 V2000
    0.7600    1.1070    0.4908 C   0  0  2  0  0  0  0  0  0  0  0  0
    1.3803    0.2570   -0.6414 C   0  0  0  0  0  0  0  0  0  0  0  0
    0.5717   -0.9853   -0.9493 C   0  0  0  0  0  0  0  0  0  0  0  0
    0.2186   -1.8832    0.0618 C   0  0  0  0  0  0  0  0  0  0  0  0
   -0.7296   -2.8724   -0.1648 C   0  0  0  0  0  0  0  0  0  0  0  0
   -1.3096   -2.9943   -1.4272 C   0  0  0  0  0  0  0  0  0  0  0  0
   -0.8407   -2.2232   -2.4849 C   0  0  0  0  0  0  0  0  0  0  0  0
    0.0757   -1.2101   -2.2339 C   0  0  0  0  0  0  0  0  0  0  0  0
   -2.3909   -3.8120   -1.6467 O   0  0  0  0  0  0  0  0  0  0  0  0
   -3.5359   -3.4582   -0.8666 C   0  0  0  0  0  0  0  0  0  0  0  0
   -3.9592   -2.0018   -1.0899 C   0  0  0  0  0  0  0  0  0  0  0  0
   -4.9794   -1.4789   -0.0696 C   0  0  0  0  0  0  0  0  0  0  0  0
   -4.4096   -1.4751    1.3417 C   0  0  0  0  0  0  0  0  0  0  0  0
   -4.6531   -2.3812    2.1230 O   0  0  0  0  0  0  0  0  0  0  0  0
   -3.5879   -0.4476    1.7199 N   0  0  0  0  0  0  0  0  0  0  0  0
   -3.0123    0.6452    0.9681 C   0  0  2  0  0  0  0  0  0  0  0  0
   -1.5046    0.6633    1.2953 C   0  0  0  0  0  0  0  0  0  0  0  0
   -1.1082    0.2068    2.3619 O   0  0  0  0  0  0  0  0  0  0  0  0
   -0.6822    1.2015    0.3663 N   0  0  0  0  0  0  0  0  0  0  0  0
   -3.6640    1.9826    1.3562 C   0  0  0  0  0  0  0  0  0  0  0  0
   -3.3437    3.1047    0.3797 C   0  0  0  0  0  0  0  0  0  0  0  0
   -2.7635    2.9202   -0.6844 O   0  0  0  0  0  0  0  0  0  0  0  0
   -3.7623    4.3371    0.7578 N   0  0  0  0  0  0  0  0  0  0  0  0
    1.3439    2.5264    0.5833 C   0  0  2  0  0  0  0  0  0  0  0  0
    0.9030    3.3636   -0.4732 O   0  0  0  0  0  0  0  0  0  0  0  0
    2.8695    2.5475    0.6700 C   0  0  0  0  0  0  0  0  0  0  0  0
    3.3374    1.5565    1.6399 N   0  0  0  0  0  0  0  0  0  0  0  0
    4.9773    1.2182    1.6556 S   0  0  0  0  0  0  0  0  0  0  0  0
    5.2202    0.5844    2.9409 O   0  0  0  0  0  0  0  0  0  0  0  0
    5.7238    2.3968    1.2406 O   0  0  0  0  0  0  0  0  0  0  0  0
    5.1195    0.0043    0.3748 C   0  0  0  0  0  0  0  0  0  0  0  0
    5.6577    0.3609   -0.8580 C   0  0  0  0  0  0  0  0  0  0  0  0
    5.7086   -0.5914   -1.8711 C   0  0  0  0  0  0  0  0  0  0  0  0
    5.2321   -1.8819   -1.6459 C   0  0  0  0  0  0  0  0  0  0  0  0
    4.7078   -2.2262   -0.4005 C   0  0  0  0  0  0  0  0  0  0  0  0
    4.6516   -1.2821    0.6205 C   0  0  0  0  0  0  0  0  0  0  0  0
    0.9310    0.5908    1.4406 H   0  0  0  0  0  0  0  0  0  0  0  0
    1.4662    0.8640   -1.5528 H   0  0  0  0  0  0  0  0  0  0  0  0
    2.4004   -0.0187   -0.3445 H   0  0  0  0  0  0  0  0  0  0  0  0
    0.6371   -1.7808    1.0619 H   0  0  0  0  0  0  0  0  0  0  0  0
   -1.0502   -3.5278    0.6422 H   0  0  0  0  0  0  0  0  0  0  0  0
   -1.2629   -2.3732   -3.4759 H   0  0  0  0  0  0  0  0  0  0  0  0
    0.3893   -0.5662   -3.0521 H   0  0  0  0  0  0  0  0  0  0  0  0
   -4.3216   -4.1516   -1.1834 H   0  0  0  0  0  0  0  0  0  0  0  0
   -3.3407   -3.6485    0.1972 H   0  0  0  0  0  0  0  0  0  0  0  0
   -4.3616   -1.8943   -2.1037 H   0  0  0  0  0  0  0  0  0  0  0  0
   -3.0676   -1.3666   -1.0400 H   0  0  0  0  0  0  0  0  0  0  0  0
   -5.3154   -0.4742   -0.3549 H   0  0  0  0  0  0  0  0  0  0  0  0
   -5.8597   -2.1284   -0.0381 H   0  0  0  0  0  0  0  0  0  0  0  0
   -3.1678   -0.5814    2.6335 H   0  0  0  0  0  0  0  0  0  0  0  0
   -3.1574    0.4956   -0.1060 H   0  0  0  0  0  0  0  0  0  0  0  0
   -1.0770    1.7381   -0.3975 H   0  0  0  0  0  0  0  0  0  0  0  0
   -4.7522    1.8419    1.3845 H   0  0  0  0  0  0  0  0  0  0  0  0
   -3.3591    2.2607    2.3725 H   0  0  0  0  0  0  0  0  0  0  0  0
   -3.5858    5.1125    0.1372 H   0  0  0  0  0  0  0  0  0  0  0  0
   -4.2462    4.5037    1.6250 H   0  0  0  0  0  0  0  0  0  0  0  0
    0.9235    2.9734    1.4936 H   0  0  0  0  0  0  0  0  0  0  0  0
    1.3954    3.1303   -1.2727 H   0  0  0  0  0  0  0  0  0  0  0  0
    3.2937    2.2951   -0.3084 H   0  0  0  0  0  0  0  0  0  0  0  0
    3.2187    3.5546    0.9261 H   0  0  0  0  0  0  0  0  0  0  0  0
    3.0460    1.7152    2.6014 H   0  0  0  0  0  0  0  0  0  0  0  0
    6.0299    1.3710   -1.0096 H   0  0  0  0  0  0  0  0  0  0  0  0
    6.1212   -0.3257   -2.8409 H   0  0  0  0  0  0  0  0  0  0  0  0
    5.2678   -2.6222   -2.4418 H   0  0  0  0  0  0  0  0  0  0  0  0
    4.3425   -3.2345   -0.2251 H   0  0  0  0  0  0  0  0  0  0  0  0
    4.2404   -1.5319    1.5959 H   0  0  0  0  0  0  0  0  0  0  0  0
  1 24  1  0  0  0  0
  1 37  1  1  0  0  0
  2 39  1  0  0  0  0
  2  1  1  0  0  0  0
  3  2  1  0  0  0  0
  3  4  2  0  0  0  0
  4 40  1  0  0  0  0
  5  4  1  0  0  0  0
  5 41  1  0  0  0  0
  6  5  2  0  0  0  0
  7  8  2  0  0  0  0
  7  6  1  0  0  0  0
  8  3  1  0  0  0  0
  9  6  1  0  0  0  0
  9 10  1  0  0  0  0
 10 45  1  0  0  0  0
 11 47  1  0  0  0  0
 11 10  1  0  0  0  0
 11 12  1  0  0  0  0
 12 49  1  0  0  0  0
 12 13  1  0  0  0  0
 13 15  1  0  0  0  0
 13 14  2  0  0  0  0
 15 50  1  0  0  0  0
 16 51  1  6  0  0  0
 16 17  1  0  0  0  0
 16 20  1  0  0  0  0
 16 15  1  0  0  0  0
 17 18  2  0  0  0  0
 19  1  1  0  0  0  0
 19 17  1  0  0  0  0
 20 53  1  0  0  0  0
 20 54  1  0  0  0  0
 21 23  1  0  0  0  0
 21 20  1  0  0  0  0
 22 21  2  0  0  0  0
 23 56  1  0  0  0  0
 24 26  1  0  0  0  0
 24 57  1  1  0  0  0
 25 24  1  0  0  0  0
 26 60  1  0  0  0  0
 26 27  1  0  0  0  0
 27 28  1  0  0  0  0
 27 61  1  0  0  0  0
 28 29  2  0  0  0  0
 30 28  2  0  0  0  0
 31 36  1  0  0  0  0
 31 28  1  0  0  0  0
 32 31  2  0  0  0  0
 33 34  2  0  0  0  0
 33 32  1  0  0  0  0
 34 35  1  0  0  0  0
 35 65  1  0  0  0  0
 35 36  2  0  0  0  0
 36 66  1  0  0  0  0
 38  2  1  0  0  0  0
 42  7  1  0  0  0  0
 43  8  1  0  0  0  0
 44 10  1  0  0  0  0
 46 11  1  0  0  0  0
 48 12  1  0  0  0  0
 52 19  1  0  0  0  0
 55 23  1  0  0  0  0
 58 25  1  0  0  0  0
 59 26  1  0  0  0  0
 62 32  1  0  0  0  0
 63 33  1  0  0  0  0
 64 34  1  0  0  0  0
M  END
