omegapdb_1xom_08.xyz
 OpenBabel12161914463D

 50 52  0  0  1  0  0  0  0  0999 V2000
    5.8156    1.9273   -1.5223 O   0  0  0  0  0  0  0  0  0  0  0  0
    4.8639    2.0970   -0.5797 C   0  0  0  0  0  0  0  0  0  0  0  0
    5.0539    2.7777    0.4003 O   0  0  0  0  0  0  0  0  0  0  0  0
    3.5840    1.3512   -0.9180 C   0  0  1  0  0  0  0  0  0  0  0  0
    3.8970   -0.1215   -1.2698 C   0  0  0  0  0  0  0  0  0  0  0  0
    2.6842   -1.0154   -1.0308 C   0  0  0  0  0  0  0  0  0  0  0  0
    2.2916   -1.0715    0.4836 C   0  0  2  0  0  0  0  0  0  0  0  0
    2.6856    0.2677    1.1715 C   0  0  0  0  0  0  0  0  0  0  0  0
    2.5551    1.4553    0.2189 C   0  0  0  0  0  0  0  0  0  0  0  0
    3.0930   -2.1378    1.1355 C   0  0  0  0  0  0  0  0  0  0  0  0
    3.7299   -2.9628    1.6400 N   0  0  0  0  0  0  0  0  0  0  0  0
    0.7974   -1.4357    0.6126 C   0  0  0  0  0  0  0  0  0  0  0  0
    0.3815   -2.7119    0.2434 C   0  0  0  0  0  0  0  0  0  0  0  0
   -0.9670   -3.0693    0.2556 C   0  0  0  0  0  0  0  0  0  0  0  0
   -1.9346   -2.1508    0.6419 C   0  0  0  0  0  0  0  0  0  0  0  0
   -3.2709   -2.3947    0.6790 O   0  0  0  0  0  0  0  0  0  0  0  0
   -3.7150   -3.6651    0.2543 C   0  0  0  0  0  0  0  0  0  0  0  0
   -1.5263   -0.8646    1.0372 C   0  0  0  0  0  0  0  0  0  0  0  0
   -0.1824   -0.5233    1.0143 C   0  0  0  0  0  0  0  0  0  0  0  0
   -2.4499    0.0458    1.4822 O   0  0  0  0  0  0  0  0  0  0  0  0
   -3.1565    0.7093    0.4316 C   0  0  0  0  0  0  0  0  0  0  0  0
   -4.1615    1.6842    1.0351 C   0  0  0  0  0  0  0  0  0  0  0  0
   -4.4182    2.7411   -0.0645 C   0  0  0  0  0  0  0  0  0  0  0  0
   -3.2742    2.5598   -1.0987 C   0  0  0  0  0  0  0  0  0  0  0  0
   -2.2719    1.6111   -0.4279 C   0  0  0  0  0  0  0  0  0  0  0  0
    6.5833    2.4421   -1.2218 H   0  0  0  0  0  0  0  0  0  0  0  0
    3.1781    1.8469   -1.8100 H   0  0  0  0  0  0  0  0  0  0  0  0
    4.7286   -0.4787   -0.6520 H   0  0  0  0  0  0  0  0  0  0  0  0
    4.2311   -0.1870   -2.3076 H   0  0  0  0  0  0  0  0  0  0  0  0
    1.8241   -0.6368   -1.5942 H   0  0  0  0  0  0  0  0  0  0  0  0
    2.8698   -2.0293   -1.4003 H   0  0  0  0  0  0  0  0  0  0  0  0
    2.0899    0.4021    2.0794 H   0  0  0  0  0  0  0  0  0  0  0  0
    3.7268    0.2045    1.5060 H   0  0  0  0  0  0  0  0  0  0  0  0
    2.6993    2.3958    0.7547 H   0  0  0  0  0  0  0  0  0  0  0  0
    1.5479    1.4694   -0.2148 H   0  0  0  0  0  0  0  0  0  0  0  0
    1.1131   -3.4582   -0.0614 H   0  0  0  0  0  0  0  0  0  0  0  0
   -1.2537   -4.0697   -0.0457 H   0  0  0  0  0  0  0  0  0  0  0  0
   -3.4429   -3.8528   -0.7928 H   0  0  0  0  0  0  0  0  0  0  0  0
   -3.3016   -4.4658    0.8814 H   0  0  0  0  0  0  0  0  0  0  0  0
   -4.8014   -3.6538    0.3517 H   0  0  0  0  0  0  0  0  0  0  0  0
    0.0669    0.4915    1.3110 H   0  0  0  0  0  0  0  0  0  0  0  0
   -3.6606   -0.0368   -0.1971 H   0  0  0  0  0  0  0  0  0  0  0  0
   -5.0691    1.1803    1.3826 H   0  0  0  0  0  0  0  0  0  0  0  0
   -3.6853    2.1434    1.9096 H   0  0  0  0  0  0  0  0  0  0  0  0
   -4.4175    3.7487    0.3631 H   0  0  0  0  0  0  0  0  0  0  0  0
   -5.3933    2.5987   -0.5422 H   0  0  0  0  0  0  0  0  0  0  0  0
   -3.6669    2.1052   -2.0157 H   0  0  0  0  0  0  0  0  0  0  0  0
   -2.8172    3.5114   -1.3882 H   0  0  0  0  0  0  0  0  0  0  0  0
   -1.6472    1.0515   -1.1346 H   0  0  0  0  0  0  0  0  0  0  0  0
   -1.6062    2.1747    0.2392 H   0  0  0  0  0  0  0  0  0  0  0  0
  1 26  1  0  0  0  0
  1  2  1  0  0  0  0
  2  3  2  0  0  0  0
  4 27  1  6  0  0  0
  4  2  1  0  0  0  0
  4  9  1  0  0  0  0
  5  6  1  0  0  0  0
  5  4  1  0  0  0  0
  5 28  1  0  0  0  0
  6  7  1  0  0  0  0
  7 12  1  0  0  0  0
  7 10  1  1  0  0  0
  7  8  1  0  0  0  0
  8 33  1  0  0  0  0
  8 32  1  0  0  0  0
  9 34  1  0  0  0  0
  9  8  1  0  0  0  0
 10 11  3  0  0  0  0
 12 19  2  0  0  0  0
 13 14  2  0  0  0  0
 13 12  1  0  0  0  0
 14 15  1  0  0  0  0
 15 16  1  0  0  0  0
 15 18  2  0  0  0  0
 17 40  1  0  0  0  0
 17 16  1  0  0  0  0
 17 39  1  0  0  0  0
 18 20  1  0  0  0  0
 19 18  1  0  0  0  0
 19 41  1  0  0  0  0
 21 22  1  0  0  0  0
 21 20  1  0  0  0  0
 22 43  1  0  0  0  0
 22 44  1  0  0  0  0
 23 45  1  0  0  0  0
 23 22  1  0  0  0  0
 24 25  1  0  0  0  0
 24 23  1  0  0  0  0
 25 50  1  0  0  0  0
 25 21  1  0  0  0  0
 29  5  1  0  0  0  0
 30  6  1  0  0  0  0
 31  6  1  0  0  0  0
 35  9  1  0  0  0  0
 36 13  1  0  0  0  0
 37 14  1  0  0  0  0
 38 17  1  0  0  0  0
 42 21  1  0  0  0  0
 46 23  1  0  0  0  0
 47 24  1  0  0  0  0
 48 24  1  0  0  0  0
 49 25  1  0  0  0  0
M  END
