omegapdb_1qxw_02.xyz
 OpenBabel12161914463D

 36 36  0  0  1  0  0  0  0  0999 V2000
    5.2410    0.4607    0.6075 C   0  0  0  0  0  0  0  0  0  0  0  0
    4.6490    0.3404   -0.7683 C   0  0  0  0  0  0  0  0  0  0  0  0
    3.8930    1.0461    0.3187 C   0  0  0  0  0  0  0  0  0  0  0  0
    2.7642    0.3535    0.8687 N   0  0  0  0  0  0  0  0  0  0  0  0
    1.5845    0.3812    0.0101 C   0  0  0  0  0  0  0  0  0  0  0  0
    0.5859   -0.6311    0.5641 C   0  0  0  0  0  0  0  0  0  0  0  0
   -0.6730   -0.8154   -0.2993 C   0  0  1  0  0  0  0  0  0  0  0  0
   -1.5198   -1.7233    0.4780 N   0  0  0  0  0  0  0  0  0  0  0  0
   -1.3698    0.5216   -0.5755 C   0  0  0  0  0  0  0  0  0  0  0  0
   -2.7836    0.3965   -1.1557 C   0  0  0  0  0  0  0  0  0  0  0  0
   -3.8942    0.3973   -0.1026 C   0  0  0  0  0  0  0  0  0  0  0  0
   -5.2690    0.1412   -0.7097 C   0  0  0  0  0  0  0  0  0  0  0  0
    0.2060   -0.1801    1.8484 O   0  0  0  0  0  0  0  0  0  0  0  0
    1.2156   -1.8970    0.6260 O   0  0  0  0  0  0  0  0  0  0  0  0
    5.2499   -0.4371    1.2164 H   0  0  0  0  0  0  0  0  0  0  0  0
    6.0760    1.1362    0.7642 H   0  0  0  0  0  0  0  0  0  0  0  0
    5.0742    0.9319   -1.5735 H   0  0  0  0  0  0  0  0  0  0  0  0
    4.2695   -0.6353   -1.0598 H   0  0  0  0  0  0  0  0  0  0  0  0
    3.8289    2.1352    0.2422 H   0  0  0  0  0  0  0  0  0  0  0  0
    2.5306    0.7310    1.7837 H   0  0  0  0  0  0  0  0  0  0  0  0
    1.1294    1.3789   -0.0604 H   0  0  0  0  0  0  0  0  0  0  0  0
    1.8947    0.0701   -0.9933 H   0  0  0  0  0  0  0  0  0  0  0  0
   -0.3656   -1.2550   -1.2637 H   0  0  0  0  0  0  0  0  0  0  0  0
   -1.0373   -2.6146    0.5730 H   0  0  0  0  0  0  0  0  0  0  0  0
   -2.3858   -1.9126   -0.0180 H   0  0  0  0  0  0  0  0  0  0  0  0
   -1.3970    1.1090    0.3528 H   0  0  0  0  0  0  0  0  0  0  0  0
   -0.7453    1.0847   -1.2809 H   0  0  0  0  0  0  0  0  0  0  0  0
   -2.8491   -0.5138   -1.7705 H   0  0  0  0  0  0  0  0  0  0  0  0
   -2.9702    1.2292   -1.8457 H   0  0  0  0  0  0  0  0  0  0  0  0
   -3.8887    1.3691    0.4090 H   0  0  0  0  0  0  0  0  0  0  0  0
   -3.6745   -0.3477    0.6720 H   0  0  0  0  0  0  0  0  0  0  0  0
   -5.3068   -0.8415   -1.1934 H   0  0  0  0  0  0  0  0  0  0  0  0
   -6.0574    0.1719    0.0486 H   0  0  0  0  0  0  0  0  0  0  0  0
   -5.5058    0.8933   -1.4710 H   0  0  0  0  0  0  0  0  0  0  0  0
   -0.5504   -0.7528    2.0741 H   0  0  0  0  0  0  0  0  0  0  0  0
    2.0508   -1.7213    1.0916 H   0  0  0  0  0  0  0  0  0  0  0  0
  1 16  1  0  0  0  0
  1 15  1  0  0  0  0
  2  3  1  0  0  0  0
  2  1  1  0  0  0  0
  3  1  1  0  0  0  0
  3  4  1  0  0  0  0
  4 20  1  0  0  0  0
  5  6  1  0  0  0  0
  5  4  1  0  0  0  0
  6 14  1  0  0  0  0
  6 13  1  0  0  0  0
  7 23  1  6  0  0  0
  7  8  1  0  0  0  0
  7  6  1  0  0  0  0
  8 24  1  0  0  0  0
  9  7  1  0  0  0  0
  9 26  1  0  0  0  0
 10  9  1  0  0  0  0
 10 11  1  0  0  0  0
 11 30  1  0  0  0  0
 11 31  1  0  0  0  0
 12 11  1  0  0  0  0
 12 33  1  0  0  0  0
 13 35  1  0  0  0  0
 14 36  1  0  0  0  0
 17  2  1  0  0  0  0
 18  2  1  0  0  0  0
 19  3  1  0  0  0  0
 21  5  1  0  0  0  0
 22  5  1  0  0  0  0
 25  8  1  0  0  0  0
 27  9  1  0  0  0  0
 28 10  1  0  0  0  0
 29 10  1  0  0  0  0
 32 12  1  0  0  0  0
 34 12  1  0  0  0  0
M  END
