omegapdb_2f7p_00.xyz
 OpenBabel12161914463D

 34 35  0  0  1  0  0  0  0  0999 V2000
   -1.3194   -0.9808   -0.5660 C   0  0  1  0  0  0  0  0  0  0  0  0
   -0.0453   -0.5247   -0.0027 N   0  0  0  0  0  0  0  0  0  0  0  0
    1.0637   -0.5506   -0.9546 C   0  0  0  0  0  0  0  0  0  0  0  0
    2.3143    0.1130   -0.4237 C   0  0  0  0  0  0  0  0  0  0  0  0
    2.6002    0.1703    0.9403 C   0  0  0  0  0  0  0  0  0  0  0  0
    3.7742    0.7640    1.3939 C   0  0  0  0  0  0  0  0  0  0  0  0
    4.6803    1.3094    0.4892 C   0  0  0  0  0  0  0  0  0  0  0  0
    4.4057    1.2528   -0.8744 C   0  0  0  0  0  0  0  0  0  0  0  0
    3.2295    0.6609   -1.3230 C   0  0  0  0  0  0  0  0  0  0  0  0
   -2.1706   -1.6233    0.5741 C   0  0  1  0  0  0  0  0  0  0  0  0
   -1.3721   -2.0734    1.6442 O   0  0  0  0  0  0  0  0  0  0  0  0
   -3.1592   -0.5138    1.0518 C   0  0  1  0  0  0  0  0  0  0  0  0
   -2.9733   -0.2005    2.4133 O   0  0  0  0  0  0  0  0  0  0  0  0
   -2.8541    0.7355    0.1801 C   0  0  1  0  0  0  0  0  0  0  0  0
   -1.9107    1.5483    0.8506 O   0  0  0  0  0  0  0  0  0  0  0  0
   -2.1803    0.1916   -1.0895 C   0  0  2  0  0  0  0  0  0  0  0  0
   -3.3674   -0.4455   -2.3142 S   0  0  0  0  0  0  0  0  0  0  0  0
   -1.1130   -1.7193   -1.3465 H   0  0  0  0  0  0  0  0  0  0  0  0
   -0.1790    0.4194    0.3611 H   0  0  0  0  0  0  0  0  0  0  0  0
    0.7960   -0.0807   -1.9175 H   0  0  0  0  0  0  0  0  0  0  0  0
    1.2704   -1.6057   -1.1774 H   0  0  0  0  0  0  0  0  0  0  0  0
    1.8955   -0.2514    1.6530 H   0  0  0  0  0  0  0  0  0  0  0  0
    3.9769    0.8088    2.4617 H   0  0  0  0  0  0  0  0  0  0  0  0
    5.5967    1.7735    0.8448 H   0  0  0  0  0  0  0  0  0  0  0  0
    5.1082    1.6737   -1.5909 H   0  0  0  0  0  0  0  0  0  0  0  0
    3.0204    0.6200   -2.3906 H   0  0  0  0  0  0  0  0  0  0  0  0
   -2.7347   -2.4806    0.1920 H   0  0  0  0  0  0  0  0  0  0  0  0
   -0.4883   -1.6964    1.4456 H   0  0  0  0  0  0  0  0  0  0  0  0
   -4.1944   -0.8384    0.8911 H   0  0  0  0  0  0  0  0  0  0  0  0
   -2.3418   -0.8703    2.7396 H   0  0  0  0  0  0  0  0  0  0  0  0
   -3.7680    1.3100   -0.0349 H   0  0  0  0  0  0  0  0  0  0  0  0
   -2.0849    1.3948    1.7973 H   0  0  0  0  0  0  0  0  0  0  0  0
   -1.5603    0.9675   -1.5444 H   0  0  0  0  0  0  0  0  0  0  0  0
   -3.9149    0.7418   -2.6175 H   0  0  0  0  0  0  0  0  0  0  0  0
  1 16  1  6  0  0  0
  1  2  1  0  0  0  0
  2 19  1  0  0  0  0
  3  4  1  0  0  0  0
  3  2  1  0  0  0  0
  4  5  2  0  0  0  0
  5  6  1  0  0  0  0
  5 22  1  0  0  0  0
  6 23  1  0  0  0  0
  7 24  1  0  0  0  0
  7  6  2  0  0  0  0
  8  7  1  0  0  0  0
  9  8  2  0  0  0  0
  9  4  1  0  0  0  0
 10  1  1  6  0  0  0
 10 12  1  0  0  0  0
 10 11  1  0  0  0  0
 12 14  1  6  0  0  0
 12 13  1  0  0  0  0
 13 30  1  0  0  0  0
 14 16  1  6  0  0  0
 14 15  1  0  0  0  0
 15 32  1  0  0  0  0
 16 33  1  6  0  0  0
 17 16  1  0  0  0  0
 18  1  1  0  0  0  0
 20  3  1  0  0  0  0
 21  3  1  0  0  0  0
 25  8  1  0  0  0  0
 26  9  1  0  0  0  0
 27 10  1  0  0  0  0
 28 11  1  0  0  0  0
 29 12  1  0  0  0  0
 31 14  1  0  0  0  0
 34 17  1  0  0  0  0
M  END
