omegapdb_1xom_06.xyz
 OpenBabel12161914463D

 50 52  0  0  1  0  0  0  0  0999 V2000
    6.1728    1.3414   -0.2445 O   0  0  0  0  0  0  0  0  0  0  0  0
    5.1091    2.1688   -0.3474 C   0  0  0  0  0  0  0  0  0  0  0  0
    5.2407    3.3669   -0.4215 O   0  0  0  0  0  0  0  0  0  0  0  0
    3.7841    1.4391   -0.3097 C   0  0  1  0  0  0  0  0  0  0  0  0
    3.7038    0.2731   -1.3046 C   0  0  0  0  0  0  0  0  0  0  0  0
    2.3307   -0.3964   -1.2356 C   0  0  0  0  0  0  0  0  0  0  0  0
    1.9816   -0.8836    0.1965 C   0  0  2  0  0  0  0  0  0  0  0  0
    2.1076    0.3009    1.1926 C   0  0  0  0  0  0  0  0  0  0  0  0
    3.4791    0.9730    1.1247 C   0  0  0  0  0  0  0  0  0  0  0  0
    2.9873   -1.9026    0.5856 C   0  0  0  0  0  0  0  0  0  0  0  0
    3.7797   -2.6893    0.8918 N   0  0  0  0  0  0  0  0  0  0  0  0
    0.5673   -1.4903    0.2411 C   0  0  0  0  0  0  0  0  0  0  0  0
    0.3326   -2.8059    0.6127 C   0  0  0  0  0  0  0  0  0  0  0  0
   -0.9658   -3.3193    0.6413 C   0  0  0  0  0  0  0  0  0  0  0  0
   -2.0496   -2.5250    0.3072 C   0  0  0  0  0  0  0  0  0  0  0  0
   -3.3402   -2.9335    0.3012 O   0  0  0  0  0  0  0  0  0  0  0  0
   -3.5954   -4.2735    0.6587 C   0  0  0  0  0  0  0  0  0  0  0  0
   -1.8262   -1.1779   -0.0624 C   0  0  0  0  0  0  0  0  0  0  0  0
   -0.5279   -0.6892   -0.1024 C   0  0  0  0  0  0  0  0  0  0  0  0
   -2.9459   -0.4808   -0.3900 O   0  0  0  0  0  0  0  0  0  0  0  0
   -2.8495    0.9234   -0.5860 C   0  0  0  0  0  0  0  0  0  0  0  0
   -4.2072    1.4386   -1.0625 C   0  0  0  0  0  0  0  0  0  0  0  0
   -4.2642    2.9264   -0.6435 C   0  0  0  0  0  0  0  0  0  0  0  0
   -3.0587    3.1377    0.3085 C   0  0  0  0  0  0  0  0  0  0  0  0
   -2.5984    1.7254    0.6909 C   0  0  0  0  0  0  0  0  0  0  0  0
    6.9539    1.9190   -0.2398 H   0  0  0  0  0  0  0  0  0  0  0  0
    3.0374    2.1911   -0.5876 H   0  0  0  0  0  0  0  0  0  0  0  0
    4.4926   -0.4546   -1.0876 H   0  0  0  0  0  0  0  0  0  0  0  0
    3.8792    0.6387   -2.3225 H   0  0  0  0  0  0  0  0  0  0  0  0
    2.2715   -1.2439   -1.9258 H   0  0  0  0  0  0  0  0  0  0  0  0
    1.5624    0.3213   -1.5481 H   0  0  0  0  0  0  0  0  0  0  0  0
    1.8934   -0.0556    2.2050 H   0  0  0  0  0  0  0  0  0  0  0  0
    1.3346    1.0383    0.9443 H   0  0  0  0  0  0  0  0  0  0  0  0
    4.2588    0.2798    1.4610 H   0  0  0  0  0  0  0  0  0  0  0  0
    3.4997    1.8324    1.8050 H   0  0  0  0  0  0  0  0  0  0  0  0
    1.1583   -3.4587    0.8821 H   0  0  0  0  0  0  0  0  0  0  0  0
   -1.1084   -4.3548    0.9283 H   0  0  0  0  0  0  0  0  0  0  0  0
   -3.0992   -4.9739   -0.0264 H   0  0  0  0  0  0  0  0  0  0  0  0
   -3.2717   -4.4839    1.6868 H   0  0  0  0  0  0  0  0  0  0  0  0
   -4.6758   -4.4017    0.5862 H   0  0  0  0  0  0  0  0  0  0  0  0
   -0.3530    0.3390   -0.4106 H   0  0  0  0  0  0  0  0  0  0  0  0
   -2.0771    1.1406   -1.3390 H   0  0  0  0  0  0  0  0  0  0  0  0
   -4.3562    1.2791   -2.1352 H   0  0  0  0  0  0  0  0  0  0  0  0
   -4.9754    0.8600   -0.5375 H   0  0  0  0  0  0  0  0  0  0  0  0
   -4.2022    3.5987   -1.5055 H   0  0  0  0  0  0  0  0  0  0  0  0
   -5.2116    3.1413   -0.1385 H   0  0  0  0  0  0  0  0  0  0  0  0
   -3.3131    3.7449    1.1824 H   0  0  0  0  0  0  0  0  0  0  0  0
   -2.2512    3.6588   -0.2200 H   0  0  0  0  0  0  0  0  0  0  0  0
   -3.2323    1.3090    1.4838 H   0  0  0  0  0  0  0  0  0  0  0  0
   -1.5616    1.6875    1.0424 H   0  0  0  0  0  0  0  0  0  0  0  0
  1 26  1  0  0  0  0
  2  4  1  0  0  0  0
  2  1  1  0  0  0  0
  3  2  2  0  0  0  0
  4 27  1  6  0  0  0
  4  9  1  0  0  0  0
  5  6  1  0  0  0  0
  5 28  1  0  0  0  0
  5  4  1  0  0  0  0
  6  7  1  0  0  0  0
  7 12  1  0  0  0  0
  7 10  1  1  0  0  0
  7  8  1  0  0  0  0
  8 32  1  0  0  0  0
  9  8  1  0  0  0  0
  9 34  1  0  0  0  0
  9 35  1  0  0  0  0
 10 11  3  0  0  0  0
 12 13  2  0  0  0  0
 13 14  1  0  0  0  0
 13 36  1  0  0  0  0
 14 37  1  0  0  0  0
 15 14  2  0  0  0  0
 16 15  1  0  0  0  0
 16 17  1  0  0  0  0
 17 39  1  0  0  0  0
 18 15  1  0  0  0  0
 19 18  2  0  0  0  0
 19 12  1  0  0  0  0
 20 18  1  0  0  0  0
 21 20  1  0  0  0  0
 21 25  1  0  0  0  0
 22 23  1  0  0  0  0
 22 21  1  0  0  0  0
 22 44  1  0  0  0  0
 23 46  1  0  0  0  0
 23 24  1  0  0  0  0
 24 25  1  0  0  0  0
 24 47  1  0  0  0  0
 25 50  1  0  0  0  0
 25 49  1  0  0  0  0
 29  5  1  0  0  0  0
 30  6  1  0  0  0  0
 31  6  1  0  0  0  0
 33  8  1  0  0  0  0
 38 17  1  0  0  0  0
 40 17  1  0  0  0  0
 41 19  1  0  0  0  0
 42 21  1  0  0  0  0
 43 22  1  0  0  0  0
 45 23  1  0  0  0  0
 48 24  1  0  0  0  0
M  END
