omegapdb_1qxw_13.xyz
 OpenBabel12161914463D

 36 36  0  0  1  0  0  0  0  0999 V2000
    4.9748    0.6547   -0.6205 C   0  0  0  0  0  0  0  0  0  0  0  0
    3.8830    1.6805   -0.7664 C   0  0  0  0  0  0  0  0  0  0  0  0
    3.8495    0.6861    0.3665 C   0  0  0  0  0  0  0  0  0  0  0  0
    2.8988   -0.3897    0.4205 N   0  0  0  0  0  0  0  0  0  0  0  0
    1.4985    0.0200    0.3397 C   0  0  0  0  0  0  0  0  0  0  0  0
    0.6551   -1.1918    0.7240 C   0  0  0  0  0  0  0  0  0  0  0  0
   -0.8287   -0.8538    0.9190 C   0  0  1  0  0  0  0  0  0  0  0  0
   -0.9441    0.0605    2.0486 N   0  0  0  0  0  0  0  0  0  0  0  0
   -1.4580   -0.2431   -0.3326 C   0  0  0  0  0  0  0  0  0  0  0  0
   -2.9712   -0.0665   -0.2185 C   0  0  0  0  0  0  0  0  0  0  0  0
   -3.6077    0.4421   -1.5106 C   0  0  0  0  0  0  0  0  0  0  0  0
   -5.1132    0.6574   -1.3833 C   0  0  0  0  0  0  0  0  0  0  0  0
    1.1346   -1.7208    1.9423 O   0  0  0  0  0  0  0  0  0  0  0  0
    0.8148   -2.1547   -0.3065 O   0  0  0  0  0  0  0  0  0  0  0  0
    4.9965   -0.1632   -1.3363 H   0  0  0  0  0  0  0  0  0  0  0  0
    5.9577    0.9823   -0.2944 H   0  0  0  0  0  0  0  0  0  0  0  0
    3.1714    1.5516   -1.5786 H   0  0  0  0  0  0  0  0  0  0  0  0
    4.1118    2.7147   -0.5269 H   0  0  0  0  0  0  0  0  0  0  0  0
    4.0876    1.0870    1.3501 H   0  0  0  0  0  0  0  0  0  0  0  0
    3.0825   -1.0831   -0.2995 H   0  0  0  0  0  0  0  0  0  0  0  0
    1.2245    0.3675   -0.6659 H   0  0  0  0  0  0  0  0  0  0  0  0
    1.3091    0.8323    1.0476 H   0  0  0  0  0  0  0  0  0  0  0  0
   -1.3150   -1.8303    1.1037 H   0  0  0  0  0  0  0  0  0  0  0  0
   -0.4340   -0.3278    2.8375 H   0  0  0  0  0  0  0  0  0  0  0  0
   -1.9161    0.1397    2.3311 H   0  0  0  0  0  0  0  0  0  0  0  0
   -1.2213   -0.8842   -1.1914 H   0  0  0  0  0  0  0  0  0  0  0  0
   -1.0078    0.7404   -0.5246 H   0  0  0  0  0  0  0  0  0  0  0  0
   -3.2001    0.6415    0.5909 H   0  0  0  0  0  0  0  0  0  0  0  0
   -3.4380   -1.0205    0.0670 H   0  0  0  0  0  0  0  0  0  0  0  0
   -3.1257    1.3850   -1.8023 H   0  0  0  0  0  0  0  0  0  0  0  0
   -3.4029   -0.2716   -2.3201 H   0  0  0  0  0  0  0  0  0  0  0  0
   -5.6213   -0.2731   -1.1044 H   0  0  0  0  0  0  0  0  0  0  0  0
   -5.5487    1.0087   -2.3244 H   0  0  0  0  0  0  0  0  0  0  0  0
   -5.3406    1.4019   -0.6113 H   0  0  0  0  0  0  0  0  0  0  0  0
    2.0984   -1.5678    1.9023 H   0  0  0  0  0  0  0  0  0  0  0  0
    0.7458   -3.0120    0.1354 H   0  0  0  0  0  0  0  0  0  0  0  0
  1 16  1  0  0  0  0
  1  3  1  0  0  0  0
  2  1  1  0  0  0  0
  2 18  1  0  0  0  0
  2  3  1  0  0  0  0
  3  4  1  0  0  0  0
  3 19  1  0  0  0  0
  5  4  1  0  0  0  0
  5  6  1  0  0  0  0
  5 22  1  0  0  0  0
  6  7  1  0  0  0  0
  6 13  1  0  0  0  0
  7 23  1  1  0  0  0
  7  8  1  0  0  0  0
  8 25  1  0  0  0  0
  8 24  1  0  0  0  0
  9 10  1  0  0  0  0
  9  7  1  0  0  0  0
 10 29  1  0  0  0  0
 10 28  1  0  0  0  0
 11 12  1  0  0  0  0
 11 10  1  0  0  0  0
 12 32  1  0  0  0  0
 12 34  1  0  0  0  0
 14 36  1  0  0  0  0
 14  6  1  0  0  0  0
 15  1  1  0  0  0  0
 17  2  1  0  0  0  0
 20  4  1  0  0  0  0
 21  5  1  0  0  0  0
 26  9  1  0  0  0  0
 27  9  1  0  0  0  0
 30 11  1  0  0  0  0
 31 11  1  0  0  0  0
 33 12  1  0  0  0  0
 35 13  1  0  0  0  0
M  END
