omegapdb_1z1r_00.xyz
 OpenBabel12161914463D

 66 68  0  0  1  0  0  0  0  0999 V2000
    0.4561   -1.0791    1.1232 C   0  0  2  0  0  0  0  0  0  0  0  0
    0.7583   -2.1469    0.0628 C   0  0  0  0  0  0  0  0  0  0  0  0
   -0.5128   -2.8294   -0.3947 C   0  0  0  0  0  0  0  0  0  0  0  0
   -1.2057   -3.6818    0.4706 C   0  0  0  0  0  0  0  0  0  0  0  0
   -2.4792   -4.1361    0.1648 C   0  0  0  0  0  0  0  0  0  0  0  0
   -3.0986   -3.7198   -1.0126 C   0  0  0  0  0  0  0  0  0  0  0  0
   -2.3840   -2.9630   -1.9408 C   0  0  0  0  0  0  0  0  0  0  0  0
   -1.1046   -2.5211   -1.6222 C   0  0  0  0  0  0  0  0  0  0  0  0
   -4.4073   -4.0683   -1.2037 O   0  0  0  0  0  0  0  0  0  0  0  0
   -5.3256   -3.0059   -1.4480 C   0  0  0  0  0  0  0  0  0  0  0  0
   -5.5130   -2.0341   -0.2825 C   0  0  0  0  0  0  0  0  0  0  0  0
   -4.4423   -0.9536   -0.1557 C   0  0  0  0  0  0  0  0  0  0  0  0
   -4.7335   -0.0292    1.0208 C   0  0  0  0  0  0  0  0  0  0  0  0
   -5.6927   -0.1873    1.7540 O   0  0  0  0  0  0  0  0  0  0  0  0
   -3.8604    1.0195    1.2284 N   0  0  0  0  0  0  0  0  0  0  0  0
   -2.5721    1.1972    0.6016 C   0  0  2  0  0  0  0  0  0  0  0  0
   -1.4610    0.4654    1.3703 C   0  0  0  0  0  0  0  0  0  0  0  0
   -1.4041    0.4984    2.6024 O   0  0  0  0  0  0  0  0  0  0  0  0
   -0.5502   -0.1665    0.6058 N   0  0  0  0  0  0  0  0  0  0  0  0
   -2.1937    2.6838    0.5272 C   0  0  0  0  0  0  0  0  0  0  0  0
   -0.8620    2.8404   -0.1986 C   0  0  0  0  0  0  0  0  0  0  0  0
   -0.5584    2.0770   -1.1142 O   0  0  0  0  0  0  0  0  0  0  0  0
   -0.0539    3.8350    0.2209 N   0  0  0  0  0  0  0  0  0  0  0  0
    1.7024   -0.3394    1.6580 C   0  0  2  0  0  0  0  0  0  0  0  0
    1.3880    0.4034    2.8187 O   0  0  0  0  0  0  0  0  0  0  0  0
    2.3516    0.5825    0.6081 C   0  0  0  0  0  0  0  0  0  0  0  0
    3.2269    1.5258    1.2935 N   0  0  0  0  0  0  0  0  0  0  0  0
    3.7485    2.8700    0.4659 S   0  0  0  0  0  0  0  0  0  0  0  0
    4.1837    3.8223    1.4705 O   0  0  0  0  0  0  0  0  0  0  0  0
    2.7370    3.2443   -0.5211 O   0  0  0  0  0  0  0  0  0  0  0  0
    5.1606    2.2724   -0.4083 C   0  0  0  0  0  0  0  0  0  0  0  0
    6.4169    2.4079    0.1725 C   0  0  0  0  0  0  0  0  0  0  0  0
    7.5278    1.9139   -0.5039 C   0  0  0  0  0  0  0  0  0  0  0  0
    7.3757    1.2979   -1.7439 C   0  0  0  0  0  0  0  0  0  0  0  0
    6.1116    1.1777   -2.3173 C   0  0  0  0  0  0  0  0  0  0  0  0
    4.9941    1.6717   -1.6527 C   0  0  0  0  0  0  0  0  0  0  0  0
    0.0059   -1.5582    2.0011 H   0  0  0  0  0  0  0  0  0  0  0  0
    1.4531   -2.8784    0.4925 H   0  0  0  0  0  0  0  0  0  0  0  0
    1.2635   -1.6875   -0.7976 H   0  0  0  0  0  0  0  0  0  0  0  0
   -0.7515   -3.9743    1.4159 H   0  0  0  0  0  0  0  0  0  0  0  0
   -3.0410   -4.7613    0.8543 H   0  0  0  0  0  0  0  0  0  0  0  0
   -2.8368   -2.6993   -2.8934 H   0  0  0  0  0  0  0  0  0  0  0  0
   -0.5772   -1.8853   -2.3311 H   0  0  0  0  0  0  0  0  0  0  0  0
   -5.0401   -2.4554   -2.3568 H   0  0  0  0  0  0  0  0  0  0  0  0
   -6.2679   -3.5173   -1.6580 H   0  0  0  0  0  0  0  0  0  0  0  0
   -5.5885   -2.5939    0.6553 H   0  0  0  0  0  0  0  0  0  0  0  0
   -6.4778   -1.5306   -0.4149 H   0  0  0  0  0  0  0  0  0  0  0  0
   -3.4413   -1.3785   -0.0049 H   0  0  0  0  0  0  0  0  0  0  0  0
   -4.3918   -0.3594   -1.0797 H   0  0  0  0  0  0  0  0  0  0  0  0
   -3.9724    1.4383    2.1449 H   0  0  0  0  0  0  0  0  0  0  0  0
   -2.6243    0.8157   -0.4225 H   0  0  0  0  0  0  0  0  0  0  0  0
   -0.5025    0.0931   -0.3734 H   0  0  0  0  0  0  0  0  0  0  0  0
   -2.9772    3.2212   -0.0182 H   0  0  0  0  0  0  0  0  0  0  0  0
   -2.1466    3.0977    1.5425 H   0  0  0  0  0  0  0  0  0  0  0  0
   -0.2809    4.3901    1.0311 H   0  0  0  0  0  0  0  0  0  0  0  0
    0.9015    3.8467   -0.1282 H   0  0  0  0  0  0  0  0  0  0  0  0
    2.4437   -1.0960    1.9589 H   0  0  0  0  0  0  0  0  0  0  0  0
    0.4166    0.4912    2.9027 H   0  0  0  0  0  0  0  0  0  0  0  0
    2.9399   -0.0092   -0.1047 H   0  0  0  0  0  0  0  0  0  0  0  0
    1.5919    1.1266    0.0304 H   0  0  0  0  0  0  0  0  0  0  0  0
    2.8988    1.7800    2.2217 H   0  0  0  0  0  0  0  0  0  0  0  0
    6.5117    2.9033    1.1352 H   0  0  0  0  0  0  0  0  0  0  0  0
    8.5155    2.0131   -0.0626 H   0  0  0  0  0  0  0  0  0  0  0  0
    8.2479    0.9158   -2.2687 H   0  0  0  0  0  0  0  0  0  0  0  0
    5.9985    0.7006   -3.2866 H   0  0  0  0  0  0  0  0  0  0  0  0
    4.0053    1.6062   -2.1000 H   0  0  0  0  0  0  0  0  0  0  0  0
  1 24  1  0  0  0  0
  1 37  1  1  0  0  0
  2 38  1  0  0  0  0
  2  1  1  0  0  0  0
  3  2  1  0  0  0  0
  3  4  2  0  0  0  0
  4 40  1  0  0  0  0
  5  4  1  0  0  0  0
  5 41  1  0  0  0  0
  6  5  2  0  0  0  0
  7  8  2  0  0  0  0
  7  6  1  0  0  0  0
  8  3  1  0  0  0  0
  9  6  1  0  0  0  0
 10  9  1  0  0  0  0
 10 11  1  0  0  0  0
 11 12  1  0  0  0  0
 11 46  1  0  0  0  0
 12 48  1  0  0  0  0
 12 13  1  0  0  0  0
 13 15  1  0  0  0  0
 13 14  2  0  0  0  0
 15 50  1  0  0  0  0
 16 51  1  6  0  0  0
 16 15  1  0  0  0  0
 16 17  1  0  0  0  0
 17 18  2  0  0  0  0
 19  1  1  0  0  0  0
 19 17  1  0  0  0  0
 20 16  1  0  0  0  0
 20 54  1  0  0  0  0
 21 23  1  0  0  0  0
 21 20  1  0  0  0  0
 22 21  2  0  0  0  0
 23 55  1  0  0  0  0
 24 57  1  1  0  0  0
 24 25  1  0  0  0  0
 25 58  1  0  0  0  0
 26 27  1  0  0  0  0
 26 24  1  0  0  0  0
 27 61  1  0  0  0  0
 28 27  1  0  0  0  0
 28 29  2  0  0  0  0
 30 28  2  0  0  0  0
 31 32  1  0  0  0  0
 31 28  1  0  0  0  0
 32 62  1  0  0  0  0
 33 63  1  0  0  0  0
 33 32  2  0  0  0  0
 34 33  1  0  0  0  0
 35 34  2  0  0  0  0
 35 36  1  0  0  0  0
 36 31  2  0  0  0  0
 39  2  1  0  0  0  0
 42  7  1  0  0  0  0
 43  8  1  0  0  0  0
 44 10  1  0  0  0  0
 45 10  1  0  0  0  0
 47 11  1  0  0  0  0
 49 12  1  0  0  0  0
 52 19  1  0  0  0  0
 53 20  1  0  0  0  0
 56 23  1  0  0  0  0
 59 26  1  0  0  0  0
 60 26  1  0  0  0  0
 64 34  1  0  0  0  0
 65 35  1  0  0  0  0
 66 36  1  0  0  0  0
M  END
