omegapdb_2byh_17.xyz
 OpenBabel12161914463D

 40 42  0  0  0  0  0  0  0  0999 V2000
    6.1675    0.4273    2.6016 O   0  0  0  0  0  0  0  0  0  0  0  0
    5.0139    0.8128    2.6039 C   0  0  0  0  0  0  0  0  0  0  0  0
    4.4929    1.7113    3.7059 C   0  0  0  0  0  0  0  0  0  0  0  0
    4.0745    0.4064    1.5145 C   0  0  0  0  0  0  0  0  0  0  0  0
    2.7455    0.8277    1.4733 C   0  0  0  0  0  0  0  0  0  0  0  0
    1.8940    0.4263    0.4550 C   0  0  0  0  0  0  0  0  0  0  0  0
    2.3656   -0.4271   -0.5469 C   0  0  0  0  0  0  0  0  0  0  0  0
    3.7055   -0.8289   -0.5284 C   0  0  0  0  0  0  0  0  0  0  0  0
    4.5458   -0.4257    0.4941 C   0  0  0  0  0  0  0  0  0  0  0  0
    1.5513   -0.8946   -1.5994 N   0  0  0  0  0  0  0  0  0  0  0  0
    0.1928   -1.1587   -1.6901 C   0  0  0  0  0  0  0  0  0  0  0  0
   -0.3130   -1.2250   -2.8000 O   0  0  0  0  0  0  0  0  0  0  0  0
   -0.5666   -1.4020   -0.4359 C   0  0  0  0  0  0  0  0  0  0  0  0
   -0.1071   -2.1615    0.6629 C   0  0  0  0  0  0  0  0  0  0  0  0
   -1.0495   -2.3697    1.5603 N   0  0  0  0  0  0  0  0  0  0  0  0
   -2.1211   -1.7463    1.0599 N   0  0  0  0  0  0  0  0  0  0  0  0
   -1.9090   -1.1287   -0.1283 C   0  0  0  0  0  0  0  0  0  0  0  0
   -2.9153   -0.2891   -0.7998 C   0  0  0  0  0  0  0  0  0  0  0  0
   -2.5295    0.6891   -1.7219 C   0  0  0  0  0  0  0  0  0  0  0  0
   -3.4450    1.5047   -2.3602 C   0  0  0  0  0  0  0  0  0  0  0  0
   -2.9167    2.6943   -3.5031 Cl  0  0  0  0  0  0  0  0  0  0  0  0
   -4.8099    1.3735   -2.0880 C   0  0  0  0  0  0  0  0  0  0  0  0
   -5.6769    2.1867   -2.7288 O   0  0  0  0  0  0  0  0  0  0  0  0
   -5.2214    0.4153   -1.1665 C   0  0  0  0  0  0  0  0  0  0  0  0
   -4.2907   -0.3932   -0.5275 C   0  0  0  0  0  0  0  0  0  0  0  0
   -4.6959   -1.3089    0.3994 O   0  0  0  0  0  0  0  0  0  0  0  0
    5.3026    1.9091    4.4095 H   0  0  0  0  0  0  0  0  0  0  0  0
    3.6585    1.2346    4.2324 H   0  0  0  0  0  0  0  0  0  0  0  0
    4.1244    2.6582    3.2957 H   0  0  0  0  0  0  0  0  0  0  0  0
    2.3543    1.4782    2.2501 H   0  0  0  0  0  0  0  0  0  0  0  0
    0.8579    0.7516    0.4522 H   0  0  0  0  0  0  0  0  0  0  0  0
    4.0756   -1.4768   -1.3202 H   0  0  0  0  0  0  0  0  0  0  0  0
    5.5837   -0.7434    0.5182 H   0  0  0  0  0  0  0  0  0  0  0  0
    1.9914   -0.9523   -2.5092 H   0  0  0  0  0  0  0  0  0  0  0  0
    0.8882   -2.5530    0.8204 H   0  0  0  0  0  0  0  0  0  0  0  0
   -3.0156   -1.8134    1.5227 H   0  0  0  0  0  0  0  0  0  0  0  0
   -1.4813    0.8217   -1.9569 H   0  0  0  0  0  0  0  0  0  0  0  0
   -6.5739    1.9859   -2.4307 H   0  0  0  0  0  0  0  0  0  0  0  0
   -6.2852    0.3090   -0.9414 H   0  0  0  0  0  0  0  0  0  0  0  0
   -5.6622   -1.3254    0.4170 H   0  0  0  0  0  0  0  0  0  0  0  0
  1  2  2  0  0  0  0
  2  3  1  0  0  0  0
  3 28  1  0  0  0  0
  3 27  1  0  0  0  0
  4  2  1  0  0  0  0
  5  4  1  0  0  0  0
  5 30  1  0  0  0  0
  6  5  2  0  0  0  0
  7  8  2  0  0  0  0
  7  6  1  0  0  0  0
  8  9  1  0  0  0  0
  9 33  1  0  0  0  0
  9  4  2  0  0  0  0
 10  7  1  0  0  0  0
 11 10  1  0  0  0  0
 11 13  1  0  0  0  0
 12 11  2  0  0  0  0
 13 17  2  0  0  0  0
 13 14  1  0  0  0  0
 14 35  1  0  0  0  0
 14 15  2  0  0  0  0
 16 36  1  0  0  0  0
 16 15  1  0  0  0  0
 17 16  1  0  0  0  0
 18 25  1  0  0  0  0
 18 17  1  0  0  0  0
 19 18  2  0  0  0  0
 20 22  2  0  0  0  0
 20 19  1  0  0  0  0
 21 20  1  0  0  0  0
 22 24  1  0  0  0  0
 23 38  1  0  0  0  0
 23 22  1  0  0  0  0
 24 39  1  0  0  0  0
 24 25  2  0  0  0  0
 25 26  1  0  0  0  0
 26 40  1  0  0  0  0
 29  3  1  0  0  0  0
 31  6  1  0  0  0  0
 32  8  1  0  0  0  0
 34 10  1  0  0  0  0
 37 19  1  0  0  0  0
M  END
