omegapdb_1gs5_17.xyz
 OpenBabel12161914463D

 24 23  0  0  1  0  0  0  0  0999 V2000
   -0.0882    0.0711   -0.0919 C   0  0  2  0  0  0  0  0  0  0  0  0
   -0.6181   -1.3473   -0.2696 C   0  0  0  0  0  0  0  0  0  0  0  0
   -1.7381   -1.7003    0.0046 O   0  0  0  0  0  0  0  0  0  0  0  0
    0.3171   -2.1821   -0.7573 O   0  0  0  0  0  0  0  0  0  0  0  0
    0.6739    0.2416    1.2285 C   0  0  0  0  0  0  0  0  0  0  0  0
    1.8841   -0.6740    1.4003 C   0  0  0  0  0  0  0  0  0  0  0  0
    2.9765   -0.4106    0.3787 C   0  0  0  0  0  0  0  0  0  0  0  0
    2.9796    0.5082   -0.3986 O   0  0  0  0  0  0  0  0  0  0  0  0
    4.0146   -1.2758    0.4011 O   0  0  0  0  0  0  0  0  0  0  0  0
   -1.1883    1.0087   -0.1426 N   0  0  0  0  0  0  0  0  0  0  0  0
   -1.8188    1.1988   -1.3521 C   0  0  0  0  0  0  0  0  0  0  0  0
   -1.3224    0.8092   -2.3933 O   0  0  0  0  0  0  0  0  0  0  0  0
   -3.1358    1.9363   -1.2736 C   0  0  0  0  0  0  0  0  0  0  0  0
    0.5802    0.2806   -0.9267 H   0  0  0  0  0  0  0  0  0  0  0  0
   -0.1172   -3.0466   -0.8555 H   0  0  0  0  0  0  0  0  0  0  0  0
   -0.0211    0.0905    2.0658 H   0  0  0  0  0  0  0  0  0  0  0  0
    1.0101    1.2824    1.2618 H   0  0  0  0  0  0  0  0  0  0  0  0
    2.3184   -0.5193    2.3971 H   0  0  0  0  0  0  0  0  0  0  0  0
    1.5933   -1.7286    1.3462 H   0  0  0  0  0  0  0  0  0  0  0  0
    3.8618   -1.9663    1.0608 H   0  0  0  0  0  0  0  0  0  0  0  0
   -1.7660    1.0661    0.6871 H   0  0  0  0  0  0  0  0  0  0  0  0
   -3.8596    1.3850   -0.6623 H   0  0  0  0  0  0  0  0  0  0  0  0
   -3.5340    2.0464   -2.2821 H   0  0  0  0  0  0  0  0  0  0  0  0
   -3.0022    2.9264   -0.8265 H   0  0  0  0  0  0  0  0  0  0  0  0
  1 14  1  6  0  0  0
  1  5  1  0  0  0  0
  2  1  1  0  0  0  0
  2  3  2  0  0  0  0
  4  2  1  0  0  0  0
  5 17  1  0  0  0  0
  5  6  1  0  0  0  0
  5 16  1  0  0  0  0
  6 18  1  0  0  0  0
  7  9  1  0  0  0  0
  7  6  1  0  0  0  0
  8  7  2  0  0  0  0
  9 20  1  0  0  0  0
 10  1  1  0  0  0  0
 10 21  1  0  0  0  0
 11 13  1  0  0  0  0
 11 10  1  0  0  0  0
 12 11  2  0  0  0  0
 13 24  1  0  0  0  0
 13 22  1  0  0  0  0
 15  4  1  0  0  0  0
 19  6  1  0  0  0  0
 23 13  1  0  0  0  0
M  END
