omegapdb_2f7p_12.xyz
 OpenBabel12161914463D

 34 35  0  0  1  0  0  0  0  0999 V2000
   -1.2382   -0.3744   -0.5124 C   0  0  1  0  0  0  0  0  0  0  0  0
    0.0814    0.1878   -0.3373 N   0  0  0  0  0  0  0  0  0  0  0  0
    1.1238   -0.8184   -0.1520 C   0  0  0  0  0  0  0  0  0  0  0  0
    2.5017   -0.1941   -0.1575 C   0  0  0  0  0  0  0  0  0  0  0  0
    3.5401   -0.7635    0.5785 C   0  0  0  0  0  0  0  0  0  0  0  0
    4.8105   -0.1958    0.5700 C   0  0  0  0  0  0  0  0  0  0  0  0
    5.0577    0.9485   -0.1822 C   0  0  0  0  0  0  0  0  0  0  0  0
    4.0289    1.5157   -0.9287 C   0  0  0  0  0  0  0  0  0  0  0  0
    2.7601    0.9476   -0.9168 C   0  0  0  0  0  0  0  0  0  0  0  0
   -1.8115   -1.1368    0.7142 C   0  0  1  0  0  0  0  0  0  0  0  0
   -1.3736   -0.6052    1.9588 O   0  0  0  0  0  0  0  0  0  0  0  0
   -3.3306   -0.9511    0.6018 C   0  0  1  0  0  0  0  0  0  0  0  0
   -3.9956   -1.1580    1.8262 O   0  0  0  0  0  0  0  0  0  0  0  0
   -3.4602    0.5046    0.1179 C   0  0  1  0  0  0  0  0  0  0  0  0
   -3.2224    1.3574    1.2388 O   0  0  0  0  0  0  0  0  0  0  0  0
   -2.3024    0.7061   -0.8722 C   0  0  2  0  0  0  0  0  0  0  0  0
   -2.9363    0.5490   -2.5722 S   0  0  0  0  0  0  0  0  0  0  0  0
   -1.1874   -1.0960   -1.3386 H   0  0  0  0  0  0  0  0  0  0  0  0
    0.0653    0.7877    0.4850 H   0  0  0  0  0  0  0  0  0  0  0  0
    1.0389   -1.5361   -0.9812 H   0  0  0  0  0  0  0  0  0  0  0  0
    0.9909   -1.3961    0.7798 H   0  0  0  0  0  0  0  0  0  0  0  0
    3.3561   -1.6598    1.1680 H   0  0  0  0  0  0  0  0  0  0  0  0
    5.6097   -0.6469    1.1536 H   0  0  0  0  0  0  0  0  0  0  0  0
    6.0475    1.3977   -0.1882 H   0  0  0  0  0  0  0  0  0  0  0  0
    4.2120    2.4109   -1.5186 H   0  0  0  0  0  0  0  0  0  0  0  0
    1.9484    1.3869   -1.4900 H   0  0  0  0  0  0  0  0  0  0  0  0
   -1.5277   -2.1956    0.7114 H   0  0  0  0  0  0  0  0  0  0  0  0
   -1.7014    0.3135    1.9883 H   0  0  0  0  0  0  0  0  0  0  0  0
   -3.7533   -1.6336   -0.1437 H   0  0  0  0  0  0  0  0  0  0  0  0
   -3.2891   -1.1733    2.4939 H   0  0  0  0  0  0  0  0  0  0  0  0
   -4.4404    0.7152   -0.3259 H   0  0  0  0  0  0  0  0  0  0  0  0
   -3.8663    1.0719    1.9073 H   0  0  0  0  0  0  0  0  0  0  0  0
   -1.8914    1.7068   -0.7292 H   0  0  0  0  0  0  0  0  0  0  0  0
   -1.8450    1.0273   -3.1911 H   0  0  0  0  0  0  0  0  0  0  0  0
  1 16  1  6  0  0  0
  1  2  1  0  0  0  0
  2  3  1  0  0  0  0
  2 19  1  0  0  0  0
  3 21  1  0  0  0  0
  4  3  1  0  0  0  0
  4  5  2  0  0  0  0
  5 22  1  0  0  0  0
  6  5  1  0  0  0  0
  6 23  1  0  0  0  0
  7  6  2  0  0  0  0
  8  9  2  0  0  0  0
  8  7  1  0  0  0  0
  9  4  1  0  0  0  0
 10  1  1  6  0  0  0
 10 11  1  0  0  0  0
 11 28  1  0  0  0  0
 12 14  1  6  0  0  0
 12 10  1  0  0  0  0
 12 13  1  0  0  0  0
 13 30  1  0  0  0  0
 14 16  1  6  0  0  0
 14 15  1  0  0  0  0
 15 32  1  0  0  0  0
 16 33  1  1  0  0  0
 17 16  1  0  0  0  0
 18  1  1  0  0  0  0
 20  3  1  0  0  0  0
 24  7  1  0  0  0  0
 25  8  1  0  0  0  0
 26  9  1  0  0  0  0
 27 10  1  0  0  0  0
 29 12  1  0  0  0  0
 31 14  1  0  0  0  0
 34 17  1  0  0  0  0
M  END
