omegapdb_1m5f_06.xyz
 OpenBabel12161914463D

 25 25  0  0  1  0  0  0  0  0999 V2000
   -1.8896   -3.7317   -0.4324 O   0  0  0  0  0  0  0  0  0  0  0  0
   -1.0404   -2.7254   -0.6661 C   0  0  0  0  0  0  0  0  0  0  0  0
    0.0444   -2.8741   -1.1838 O   0  0  0  0  0  0  0  0  0  0  0  0
   -1.5804   -1.4181   -0.2251 C   0  0  0  0  0  0  0  0  0  0  0  0
   -2.7777   -1.3418    0.3032 N   0  0  0  0  0  0  0  0  0  0  0  0
   -2.9676   -0.0193    0.5747 O   0  0  0  0  0  0  0  0  0  0  0  0
   -1.8878    0.6963    0.2063 C   0  0  0  0  0  0  0  0  0  0  0  0
   -0.9402   -0.1445   -0.3063 C   0  0  0  0  0  0  0  0  0  0  0  0
    0.4525    0.1774   -0.7575 C   0  0  0  0  0  0  0  0  0  0  0  0
    1.4246    0.3382    0.4273 C   0  0  2  0  0  0  0  0  0  0  0  0
    1.0509    1.4811    1.2425 N   0  0  0  0  0  0  0  0  0  0  0  0
    2.8462    0.4545   -0.1089 C   0  0  0  0  0  0  0  0  0  0  0  0
    3.4469    1.4945   -0.2451 O   0  0  0  0  0  0  0  0  0  0  0  0
    3.3667   -0.7363   -0.4544 O   0  0  0  0  0  0  0  0  0  0  0  0
   -1.9680    2.1628    0.4385 C   0  0  0  0  0  0  0  0  0  0  0  0
   -1.4508   -4.5356   -0.7575 H   0  0  0  0  0  0  0  0  0  0  0  0
    0.4571    1.1127   -1.3335 H   0  0  0  0  0  0  0  0  0  0  0  0
    0.8093   -0.6230   -1.4088 H   0  0  0  0  0  0  0  0  0  0  0  0
    1.3666   -0.5729    1.0317 H   0  0  0  0  0  0  0  0  0  0  0  0
    1.4278    2.3171    0.7993 H   0  0  0  0  0  0  0  0  0  0  0  0
    1.5062    1.4210    2.1489 H   0  0  0  0  0  0  0  0  0  0  0  0
    4.2507   -0.5535   -0.8145 H   0  0  0  0  0  0  0  0  0  0  0  0
   -1.6013    2.4058    1.4408 H   0  0  0  0  0  0  0  0  0  0  0  0
   -1.3450    2.7083   -0.2745 H   0  0  0  0  0  0  0  0  0  0  0  0
   -3.0010    2.5061    0.3556 H   0  0  0  0  0  0  0  0  0  0  0  0
  2  1  1  0  0  0  0
  2  4  1  0  0  0  0
  3  2  2  0  0  0  0
  4  5  2  0  0  0  0
  5  6  1  0  0  0  0
  7 15  1  0  0  0  0
  7  6  1  0  0  0  0
  8  4  1  0  0  0  0
  8  7  2  0  0  0  0
  9  8  1  0  0  0  0
  9 10  1  0  0  0  0
 10 19  1  1  0  0  0
 10 11  1  0  0  0  0
 11 21  1  0  0  0  0
 12 10  1  0  0  0  0
 13 12  2  0  0  0  0
 14 12  1  0  0  0  0
 15 23  1  0  0  0  0
 16  1  1  0  0  0  0
 17  9  1  0  0  0  0
 18  9  1  0  0  0  0
 20 11  1  0  0  0  0
 22 14  1  0  0  0  0
 24 15  1  0  0  0  0
 25 15  1  0  0  0  0
M  END
