omegapdb_1v2k_18.xyz
 OpenBabel12161914463D

 61 65  0  0  0  0  0  0  0  0999 V2000
    9.3225    0.2851   -0.5951 N   0  0  0  0  0  0  0  0  0  0  0  0
    8.5726   -0.1838   -1.5947 C   0  0  0  0  0  0  0  0  0  0  0  0
    7.1919   -0.2920   -1.5686 C   0  0  0  0  0  0  0  0  0  0  0  0
    6.4940    0.1115   -0.4159 C   0  0  0  0  0  0  0  0  0  0  0  0
    7.2803    0.5738    0.6546 C   0  0  0  0  0  0  0  0  0  0  0  0
    8.6566    0.6493    0.5004 C   0  0  0  0  0  0  0  0  0  0  0  0
    5.1232    0.0244   -0.3332 N   0  0  0  0  0  0  0  0  0  0  0  0
    4.4878    0.2686    0.9541 C   0  0  0  0  0  0  0  0  0  0  0  0
    2.9752    0.0373    0.8775 C   0  0  0  0  0  0  0  0  0  0  0  0
    2.6774   -1.1259   -0.0789 C   0  0  0  0  0  0  0  0  0  0  0  0
    3.1420   -0.8198   -1.5138 C   0  0  0  0  0  0  0  0  0  0  0  0
    4.2678    0.2178   -1.4938 C   0  0  0  0  0  0  0  0  0  0  0  0
    1.2492   -1.6480    0.0326 C   0  0  0  0  0  0  0  0  0  0  0  0
    1.0397   -2.6851    0.6472 O   0  0  0  0  0  0  0  0  0  0  0  0
    0.2070   -0.9576   -0.5541 N   0  0  0  0  0  0  0  0  0  0  0  0
   -1.1341   -1.5077   -0.3745 C   0  0  0  0  0  0  0  0  0  0  0  0
   -1.8690   -0.7755    0.7480 C   0  0  0  0  0  0  0  0  0  0  0  0
   -1.9034    0.6616    0.4299 N   0  0  0  0  0  0  0  0  0  0  0  0
   -0.5544    1.2343    0.2674 C   0  0  0  0  0  0  0  0  0  0  0  0
    0.1715    0.4728   -0.8440 C   0  0  0  0  0  0  0  0  0  0  0  0
   -2.8923    1.5856    1.4357 S   0  0  0  0  0  0  0  0  0  0  0  0
   -2.5716    1.2927    2.8256 O   0  0  0  0  0  0  0  0  0  0  0  0
   -2.8326    2.9507    0.9358 O   0  0  0  0  0  0  0  0  0  0  0  0
   -4.4941    0.9182    1.0888 C   0  0  0  0  0  0  0  0  0  0  0  0
   -4.9746    0.9793   -0.1906 C   0  0  0  0  0  0  0  0  0  0  0  0
   -6.2585    0.4418   -0.4828 C   0  0  0  0  0  0  0  0  0  0  0  0
   -7.0201   -0.1394    0.5632 C   0  0  0  0  0  0  0  0  0  0  0  0
   -6.4817   -0.1719    1.8811 C   0  0  0  0  0  0  0  0  0  0  0  0
   -5.2424    0.3470    2.1443 C   0  0  0  0  0  0  0  0  0  0  0  0
   -8.3054   -0.6739    0.2750 C   0  0  0  0  0  0  0  0  0  0  0  0
   -8.7930   -0.6252   -1.0012 C   0  0  0  0  0  0  0  0  0  0  0  0
   -8.0445   -0.0501   -2.0569 C   0  0  0  0  0  0  0  0  0  0  0  0
   -6.8056    0.4689   -1.7924 C   0  0  0  0  0  0  0  0  0  0  0  0
  -10.3679   -1.2796   -1.3579 Cl  0  0  0  0  0  0  0  0  0  0  0  0
    9.1123   -0.4899   -2.4905 H   0  0  0  0  0  0  0  0  0  0  0  0
    6.6757   -0.7202   -2.4212 H   0  0  0  0  0  0  0  0  0  0  0  0
    6.8358    0.8824    1.5930 H   0  0  0  0  0  0  0  0  0  0  0  0
    9.2630    1.0315    1.3226 H   0  0  0  0  0  0  0  0  0  0  0  0
    4.6870    1.2945    1.3028 H   0  0  0  0  0  0  0  0  0  0  0  0
    4.9350   -0.4159    1.6869 H   0  0  0  0  0  0  0  0  0  0  0  0
    2.4937    0.9648    0.5464 H   0  0  0  0  0  0  0  0  0  0  0  0
    2.5914   -0.1784    1.8815 H   0  0  0  0  0  0  0  0  0  0  0  0
    3.2628   -1.9744    0.2852 H   0  0  0  0  0  0  0  0  0  0  0  0
    2.3281   -0.4572   -2.1487 H   0  0  0  0  0  0  0  0  0  0  0  0
    3.4963   -1.7498   -1.9740 H   0  0  0  0  0  0  0  0  0  0  0  0
    3.8500    1.2370   -1.4780 H   0  0  0  0  0  0  0  0  0  0  0  0
    4.8631    0.1511   -2.4032 H   0  0  0  0  0  0  0  0  0  0  0  0
   -1.0381   -2.5719   -0.1552 H   0  0  0  0  0  0  0  0  0  0  0  0
   -1.6877   -1.3718   -1.3124 H   0  0  0  0  0  0  0  0  0  0  0  0
   -2.8964   -1.1495    0.8199 H   0  0  0  0  0  0  0  0  0  0  0  0
   -1.3713   -0.9450    1.7118 H   0  0  0  0  0  0  0  0  0  0  0  0
    0.0060    1.1790    1.2139 H   0  0  0  0  0  0  0  0  0  0  0  0
   -0.6670    2.2875   -0.0012 H   0  0  0  0  0  0  0  0  0  0  0  0
   -0.3802    0.6144   -1.7824 H   0  0  0  0  0  0  0  0  0  0  0  0
    1.1739    0.8727   -0.9902 H   0  0  0  0  0  0  0  0  0  0  0  0
   -4.3837    1.4378   -0.9791 H   0  0  0  0  0  0  0  0  0  0  0  0
   -7.0726   -0.6167    2.6771 H   0  0  0  0  0  0  0  0  0  0  0  0
   -4.8153    0.3363    3.1425 H   0  0  0  0  0  0  0  0  0  0  0  0
   -8.8934   -1.1186    1.0730 H   0  0  0  0  0  0  0  0  0  0  0  0
   -8.4644   -0.0301   -3.0577 H   0  0  0  0  0  0  0  0  0  0  0  0
   -6.2175    0.9149   -2.5920 H   0  0  0  0  0  0  0  0  0  0  0  0
  1  6  2  0  0  0  0
  2  3  2  0  0  0  0
  2  1  1  0  0  0  0
  3  4  1  0  0  0  0
  4  7  1  0  0  0  0
  4  5  2  0  0  0  0
  5 37  1  0  0  0  0
  6  5  1  0  0  0  0
  6 38  1  0  0  0  0
  7  8  1  0  0  0  0
  8 39  1  0  0  0  0
  8 40  1  0  0  0  0
  9  8  1  0  0  0  0
  9 42  1  0  0  0  0
 10 13  1  0  0  0  0
 10 43  1  0  0  0  0
 10  9  1  0  0  0  0
 11 12  1  0  0  0  0
 11 10  1  0  0  0  0
 12 46  1  0  0  0  0
 12  7  1  0  0  0  0
 13 14  2  0  0  0  0
 15 16  1  0  0  0  0
 15 13  1  0  0  0  0
 16 48  1  0  0  0  0
 16 17  1  0  0  0  0
 17 50  1  0  0  0  0
 17 51  1  0  0  0  0
 18 17  1  0  0  0  0
 18 21  1  0  0  0  0
 19 18  1  0  0  0  0
 19 52  1  0  0  0  0
 20 15  1  0  0  0  0
 20 19  1  0  0  0  0
 21 22  2  0  0  0  0
 23 21  2  0  0  0  0
 24 21  1  0  0  0  0
 24 29  2  0  0  0  0
 25 24  1  0  0  0  0
 26 25  2  0  0  0  0
 26 27  1  0  0  0  0
 27 28  2  0  0  0  0
 28 29  1  0  0  0  0
 28 57  1  0  0  0  0
 29 58  1  0  0  0  0
 30 27  1  0  0  0  0
 30 59  1  0  0  0  0
 31 30  2  0  0  0  0
 32 33  2  0  0  0  0
 32 31  1  0  0  0  0
 33 26  1  0  0  0  0
 34 31  1  0  0  0  0
 35  2  1  0  0  0  0
 36  3  1  0  0  0  0
 41  9  1  0  0  0  0
 44 11  1  0  0  0  0
 45 11  1  0  0  0  0
 47 12  1  0  0  0  0
 49 16  1  0  0  0  0
 53 19  1  0  0  0  0
 54 20  1  0  0  0  0
 55 20  1  0  0  0  0
 56 25  1  0  0  0  0
 60 32  1  0  0  0  0
 61 33  1  0  0  0  0
M  END
