omegapdb_1v2k_12.xyz
 OpenBabel12161914463D

 61 65  0  0  0  0  0  0  0  0999 V2000
    8.8882    1.1915   -2.1947 N   0  0  0  0  0  0  0  0  0  0  0  0
    8.4735   -0.0436   -1.9057 C   0  0  0  0  0  0  0  0  0  0  0  0
    7.2512   -0.3576   -1.3319 C   0  0  0  0  0  0  0  0  0  0  0  0
    6.3549    0.6816   -1.0226 C   0  0  0  0  0  0  0  0  0  0  0  0
    6.7801    1.9870   -1.3295 C   0  0  0  0  0  0  0  0  0  0  0  0
    8.0316    2.1706   -1.8973 C   0  0  0  0  0  0  0  0  0  0  0  0
    5.1359    0.4340   -0.4481 N   0  0  0  0  0  0  0  0  0  0  0  0
    4.8698   -0.8227    0.2300 C   0  0  0  0  0  0  0  0  0  0  0  0
    3.8539   -0.6211    1.3517 C   0  0  0  0  0  0  0  0  0  0  0  0
    2.5034   -0.1278    0.8125 C   0  0  0  0  0  0  0  0  0  0  0  0
    2.6996    0.7136   -0.4695 C   0  0  0  0  0  0  0  0  0  0  0  0
    4.0600    1.4103   -0.5037 C   0  0  0  0  0  0  0  0  0  0  0  0
    1.5980   -1.3184    0.4961 C   0  0  0  0  0  0  0  0  0  0  0  0
    2.0668   -2.4248    0.2620 O   0  0  0  0  0  0  0  0  0  0  0  0
    0.2469   -1.1213    0.4528 N   0  0  0  0  0  0  0  0  0  0  0  0
   -0.5721   -2.3065    0.1836 C   0  0  0  0  0  0  0  0  0  0  0  0
   -2.0510   -1.9844    0.3415 C   0  0  0  0  0  0  0  0  0  0  0  0
   -2.2571   -1.2405    1.5811 N   0  0  0  0  0  0  0  0  0  0  0  0
   -1.4952    0.0040    1.7561 C   0  0  0  0  0  0  0  0  0  0  0  0
   -0.4521    0.1384    0.6443 C   0  0  0  0  0  0  0  0  0  0  0  0
   -3.7113   -1.3681    2.3655 S   0  0  0  0  0  0  0  0  0  0  0  0
   -3.5600   -0.6819    3.6358 O   0  0  0  0  0  0  0  0  0  0  0  0
   -4.1165   -2.7606    2.2846 O   0  0  0  0  0  0  0  0  0  0  0  0
   -4.8240   -0.4135    1.3608 C   0  0  0  0  0  0  0  0  0  0  0  0
   -5.3064   -0.9468    0.1965 C   0  0  0  0  0  0  0  0  0  0  0  0
   -6.1084   -0.1494   -0.6648 C   0  0  0  0  0  0  0  0  0  0  0  0
   -6.4286    1.1778   -0.2826 C   0  0  0  0  0  0  0  0  0  0  0  0
   -5.9354    1.6784    0.9559 C   0  0  0  0  0  0  0  0  0  0  0  0
   -5.1463    0.9023    1.7637 C   0  0  0  0  0  0  0  0  0  0  0  0
   -7.2311    1.9726   -1.1466 C   0  0  0  0  0  0  0  0  0  0  0  0
   -7.6762    1.4545   -2.3318 C   0  0  0  0  0  0  0  0  0  0  0  0
   -7.3601    0.1325   -2.7272 C   0  0  0  0  0  0  0  0  0  0  0  0
   -6.5941   -0.6447   -1.9017 C   0  0  0  0  0  0  0  0  0  0  0  0
   -8.6571    2.4239   -3.3959 Cl  0  0  0  0  0  0  0  0  0  0  0  0
    9.1706   -0.8472   -2.1440 H   0  0  0  0  0  0  0  0  0  0  0  0
    6.9936   -1.3965   -1.1502 H   0  0  0  0  0  0  0  0  0  0  0  0
    6.1583    2.8486   -1.1071 H   0  0  0  0  0  0  0  0  0  0  0  0
    8.3661    3.1813   -2.1316 H   0  0  0  0  0  0  0  0  0  0  0  0
    4.5044   -1.5864   -0.4716 H   0  0  0  0  0  0  0  0  0  0  0  0
    5.8070   -1.1924    0.6576 H   0  0  0  0  0  0  0  0  0  0  0  0
    3.7203   -1.5620    1.8914 H   0  0  0  0  0  0  0  0  0  0  0  0
    4.2540    0.1088    2.0657 H   0  0  0  0  0  0  0  0  0  0  0  0
    2.0342    0.4810    1.5938 H   0  0  0  0  0  0  0  0  0  0  0  0
    1.9054    1.4599   -0.5686 H   0  0  0  0  0  0  0  0  0  0  0  0
    2.6276    0.0583   -1.3453 H   0  0  0  0  0  0  0  0  0  0  0  0
    4.1509    1.9739   -1.4376 H   0  0  0  0  0  0  0  0  0  0  0  0
    4.1421    2.1342    0.3226 H   0  0  0  0  0  0  0  0  0  0  0  0
   -0.3721   -2.6818   -0.8260 H   0  0  0  0  0  0  0  0  0  0  0  0
   -0.2811   -3.0936    0.8867 H   0  0  0  0  0  0  0  0  0  0  0  0
   -2.4220   -1.4120   -0.5235 H   0  0  0  0  0  0  0  0  0  0  0  0
   -2.6229   -2.9129    0.4030 H   0  0  0  0  0  0  0  0  0  0  0  0
   -1.0229   -0.0246    2.7427 H   0  0  0  0  0  0  0  0  0  0  0  0
   -2.1638    0.8743    1.7339 H   0  0  0  0  0  0  0  0  0  0  0  0
    0.2507    0.9270    0.9068 H   0  0  0  0  0  0  0  0  0  0  0  0
   -0.9418    0.4505   -0.2909 H   0  0  0  0  0  0  0  0  0  0  0  0
   -5.0838   -1.9731   -0.0801 H   0  0  0  0  0  0  0  0  0  0  0  0
   -6.1903    2.6925    1.2512 H   0  0  0  0  0  0  0  0  0  0  0  0
   -4.7622    1.2680    2.7121 H   0  0  0  0  0  0  0  0  0  0  0  0
   -7.4817    2.9908   -0.8635 H   0  0  0  0  0  0  0  0  0  0  0  0
   -7.7283   -0.2423   -3.6768 H   0  0  0  0  0  0  0  0  0  0  0  0
   -6.3431   -1.6636   -2.1882 H   0  0  0  0  0  0  0  0  0  0  0  0
  1  2  2  0  0  0  0
  1  6  1  0  0  0  0
  2  3  1  0  0  0  0
  3 36  1  0  0  0  0
  3  4  2  0  0  0  0
  4  7  1  0  0  0  0
  5 37  1  0  0  0  0
  5  4  1  0  0  0  0
  6  5  2  0  0  0  0
  7  8  1  0  0  0  0
  8 40  1  0  0  0  0
  8  9  1  0  0  0  0
  9 41  1  0  0  0  0
  9 42  1  0  0  0  0
 10  9  1  0  0  0  0
 10 43  1  0  0  0  0
 11 10  1  0  0  0  0
 12 11  1  0  0  0  0
 12  7  1  0  0  0  0
 12 47  1  0  0  0  0
 13 10  1  0  0  0  0
 14 13  2  0  0  0  0
 15 13  1  0  0  0  0
 15 20  1  0  0  0  0
 16 17  1  0  0  0  0
 16 15  1  0  0  0  0
 16 49  1  0  0  0  0
 17 51  1  0  0  0  0
 17 18  1  0  0  0  0
 18 19  1  0  0  0  0
 18 21  1  0  0  0  0
 19 52  1  0  0  0  0
 20 54  1  0  0  0  0
 20 19  1  0  0  0  0
 21 22  2  0  0  0  0
 23 21  2  0  0  0  0
 24 29  1  0  0  0  0
 24 21  1  0  0  0  0
 25 24  2  0  0  0  0
 26 27  1  0  0  0  0
 26 25  1  0  0  0  0
 27 28  1  0  0  0  0
 28 57  1  0  0  0  0
 28 29  2  0  0  0  0
 29 58  1  0  0  0  0
 30 59  1  0  0  0  0
 30 27  2  0  0  0  0
 31 30  1  0  0  0  0
 32 31  2  0  0  0  0
 32 33  1  0  0  0  0
 33 26  2  0  0  0  0
 34 31  1  0  0  0  0
 35  2  1  0  0  0  0
 38  6  1  0  0  0  0
 39  8  1  0  0  0  0
 44 11  1  0  0  0  0
 45 11  1  0  0  0  0
 46 12  1  0  0  0  0
 48 16  1  0  0  0  0
 50 17  1  0  0  0  0
 53 19  1  0  0  0  0
 55 20  1  0  0  0  0
 56 25  1  0  0  0  0
 60 32  1  0  0  0  0
 61 33  1  0  0  0  0
M  END
