omegapdb_1xom_19.xyz
 OpenBabel12161914463D

 50 52  0  0  1  0  0  0  0  0999 V2000
    6.1963    1.6516   -1.1059 O   0  0  0  0  0  0  0  0  0  0  0  0
    5.0987    2.2560   -0.5978 C   0  0  0  0  0  0  0  0  0  0  0  0
    5.1806    3.3797   -0.1753 O   0  0  0  0  0  0  0  0  0  0  0  0
    3.7908    1.4676   -0.5324 C   0  0  1  0  0  0  0  0  0  0  0  0
    3.6448    0.2981   -1.5110 C   0  0  0  0  0  0  0  0  0  0  0  0
    2.2655   -0.3466   -1.3681 C   0  0  0  0  0  0  0  0  0  0  0  0
    2.0055   -0.8377    0.0823 C   0  0  2  0  0  0  0  0  0  0  0  0
    2.1869    0.3480    1.0687 C   0  0  0  0  0  0  0  0  0  0  0  0
    3.5525    1.0169    0.9194 C   0  0  0  0  0  0  0  0  0  0  0  0
    3.0510   -1.8410    0.4030 C   0  0  0  0  0  0  0  0  0  0  0  0
    3.8885   -2.6020    0.6468 N   0  0  0  0  0  0  0  0  0  0  0  0
    0.6051   -1.4594    0.2139 C   0  0  0  0  0  0  0  0  0  0  0  0
    0.4099   -2.7781    0.5971 C   0  0  0  0  0  0  0  0  0  0  0  0
   -0.8789   -3.3037    0.7062 C   0  0  0  0  0  0  0  0  0  0  0  0
   -1.9894   -2.5205    0.4406 C   0  0  0  0  0  0  0  0  0  0  0  0
   -3.2735   -2.9415    0.5156 O   0  0  0  0  0  0  0  0  0  0  0  0
   -3.4947   -4.2839    0.8847 C   0  0  0  0  0  0  0  0  0  0  0  0
   -1.8046   -1.1708    0.0593 C   0  0  0  0  0  0  0  0  0  0  0  0
   -0.5166   -0.6693   -0.0612 C   0  0  0  0  0  0  0  0  0  0  0  0
   -2.9491   -0.4836   -0.1966 O   0  0  0  0  0  0  0  0  0  0  0  0
   -2.8772    0.9227   -0.3926 C   0  0  0  0  0  0  0  0  0  0  0  0
   -2.5541    1.7243    0.8688 C   0  0  0  0  0  0  0  0  0  0  0  0
   -3.0512    3.1331    0.5206 C   0  0  0  0  0  0  0  0  0  0  0  0
   -4.3128    2.9126   -0.3532 C   0  0  0  0  0  0  0  0  0  0  0  0
   -4.2663    1.4273   -0.7826 C   0  0  0  0  0  0  0  0  0  0  0  0
    5.9938    0.7488   -1.3846 H   0  0  0  0  0  0  0  0  0  0  0  0
    3.0176    2.2079   -0.7759 H   0  0  0  0  0  0  0  0  0  0  0  0
    3.7809    0.6443   -2.5429 H   0  0  0  0  0  0  0  0  0  0  0  0
    4.4125   -0.4655   -1.3207 H   0  0  0  0  0  0  0  0  0  0  0  0
    1.4920    0.3853   -1.6308 H   0  0  0  0  0  0  0  0  0  0  0  0
    2.1535   -1.1885   -2.0585 H   0  0  0  0  0  0  0  0  0  0  0  0
    2.0347   -0.0063    2.0929 H   0  0  0  0  0  0  0  0  0  0  0  0
    1.4003    1.0853    0.8671 H   0  0  0  0  0  0  0  0  0  0  0  0
    4.3487    0.3249    1.2224 H   0  0  0  0  0  0  0  0  0  0  0  0
    3.6167    1.8898    1.5777 H   0  0  0  0  0  0  0  0  0  0  0  0
    1.2590   -3.4205    0.8156 H   0  0  0  0  0  0  0  0  0  0  0  0
   -0.9927   -4.3401    1.0014 H   0  0  0  0  0  0  0  0  0  0  0  0
   -3.1047   -4.4916    1.8898 H   0  0  0  0  0  0  0  0  0  0  0  0
   -4.5769   -4.4211    0.8786 H   0  0  0  0  0  0  0  0  0  0  0  0
   -3.0339   -4.9766    0.1681 H   0  0  0  0  0  0  0  0  0  0  0  0
   -0.3705    0.3609   -0.3778 H   0  0  0  0  0  0  0  0  0  0  0  0
   -2.1553    1.1505   -1.1913 H   0  0  0  0  0  0  0  0  0  0  0  0
   -1.4969    1.6972    1.1548 H   0  0  0  0  0  0  0  0  0  0  0  0
   -3.1330    1.3006    1.6991 H   0  0  0  0  0  0  0  0  0  0  0  0
   -3.2540    3.7361    1.4108 H   0  0  0  0  0  0  0  0  0  0  0  0
   -2.2845    3.6640   -0.0569 H   0  0  0  0  0  0  0  0  0  0  0  0
   -4.3129    3.5890   -1.2144 H   0  0  0  0  0  0  0  0  0  0  0  0
   -5.2283    3.1148    0.2125 H   0  0  0  0  0  0  0  0  0  0  0  0
   -4.9960    0.8383   -0.2160 H   0  0  0  0  0  0  0  0  0  0  0  0
   -4.4778    1.2732   -1.8455 H   0  0  0  0  0  0  0  0  0  0  0  0
  1  2  1  0  0  0  0
  2  4  1  0  0  0  0
  2  3  2  0  0  0  0
  4 27  1  6  0  0  0
  4  9  1  0  0  0  0
  5  6  1  0  0  0  0
  5 29  1  0  0  0  0
  5  4  1  0  0  0  0
  6  7  1  0  0  0  0
  7 12  1  0  0  0  0
  7 10  1  1  0  0  0
  7  8  1  0  0  0  0
  8 32  1  0  0  0  0
  9  8  1  0  0  0  0
  9 34  1  0  0  0  0
  9 35  1  0  0  0  0
 10 11  3  0  0  0  0
 12 13  2  0  0  0  0
 13 14  1  0  0  0  0
 13 36  1  0  0  0  0
 14 37  1  0  0  0  0
 15 16  1  0  0  0  0
 15 14  2  0  0  0  0
 16 17  1  0  0  0  0
 17 38  1  0  0  0  0
 18 15  1  0  0  0  0
 19 18  2  0  0  0  0
 19 12  1  0  0  0  0
 20 18  1  0  0  0  0
 21 20  1  0  0  0  0
 21 22  1  0  0  0  0
 22 43  1  0  0  0  0
 22 44  1  0  0  0  0
 23 22  1  0  0  0  0
 23 45  1  0  0  0  0
 24 48  1  0  0  0  0
 24 23  1  0  0  0  0
 25 21  1  0  0  0  0
 25 24  1  0  0  0  0
 25 49  1  0  0  0  0
 26  1  1  0  0  0  0
 28  5  1  0  0  0  0
 30  6  1  0  0  0  0
 31  6  1  0  0  0  0
 33  8  1  0  0  0  0
 39 17  1  0  0  0  0
 40 17  1  0  0  0  0
 41 19  1  0  0  0  0
 42 21  1  0  0  0  0
 46 23  1  0  0  0  0
 47 24  1  0  0  0  0
 50 25  1  0  0  0  0
M  END
