omegapdb_1z1r_15.xyz
 OpenBabel12161914463D

 66 68  0  0  1  0  0  0  0  0999 V2000
    0.6618    0.6969    1.2670 C   0  0  2  0  0  0  0  0  0  0  0  0
    1.4113   -0.5501    0.7543 C   0  0  0  0  0  0  0  0  0  0  0  0
    0.5277   -1.4541   -0.0733 C   0  0  0  0  0  0  0  0  0  0  0  0
    0.1995   -1.1138   -1.3901 C   0  0  0  0  0  0  0  0  0  0  0  0
   -0.8346   -1.7541   -2.0572 C   0  0  0  0  0  0  0  0  0  0  0  0
   -1.4983   -2.8172   -1.4448 C   0  0  0  0  0  0  0  0  0  0  0  0
   -1.0408   -3.2946   -0.2167 C   0  0  0  0  0  0  0  0  0  0  0  0
   -0.0587   -2.5980    0.4723 C   0  0  0  0  0  0  0  0  0  0  0  0
   -2.5755   -3.4288   -2.0231 O   0  0  0  0  0  0  0  0  0  0  0  0
   -3.7143   -2.6123   -2.2851 C   0  0  0  0  0  0  0  0  0  0  0  0
   -4.6678   -2.5062   -1.0984 C   0  0  0  0  0  0  0  0  0  0  0  0
   -4.1203   -1.8161    0.1564 C   0  0  0  0  0  0  0  0  0  0  0  0
   -3.8064   -0.3502   -0.0818 C   0  0  0  0  0  0  0  0  0  0  0  0
   -4.6581    0.3883   -0.5788 O   0  0  0  0  0  0  0  0  0  0  0  0
   -2.5884    0.1124    0.3116 N   0  0  0  0  0  0  0  0  0  0  0  0
   -2.2374    1.5246    0.2074 C   0  0  2  0  0  0  0  0  0  0  0  0
   -0.8970    1.6823   -0.5300 C   0  0  0  0  0  0  0  0  0  0  0  0
   -0.8794    1.9454   -1.7197 O   0  0  0  0  0  0  0  0  0  0  0  0
    0.3009    1.5865    0.1615 N   0  0  0  0  0  0  0  0  0  0  0  0
   -2.2813    2.2995    1.5371 C   0  0  0  0  0  0  0  0  0  0  0  0
   -3.5747    2.2668    2.3566 C   0  0  0  0  0  0  0  0  0  0  0  0
   -3.5183    2.3535    3.5711 O   0  0  0  0  0  0  0  0  0  0  0  0
   -4.7558    2.2464    1.6767 N   0  0  0  0  0  0  0  0  0  0  0  0
    1.4467    1.4960    2.3296 C   0  0  2  0  0  0  0  0  0  0  0  0
    0.7693    2.7024    2.6295 O   0  0  0  0  0  0  0  0  0  0  0  0
    2.9093    1.7542    1.9648 C   0  0  0  0  0  0  0  0  0  0  0  0
    3.0502    2.3449    0.6201 N   0  0  0  0  0  0  0  0  0  0  0  0
    4.6143    2.3465   -0.0036 S   0  0  0  0  0  0  0  0  0  0  0  0
    4.6114    3.3530   -1.0521 O   0  0  0  0  0  0  0  0  0  0  0  0
    5.5718    2.4010    1.0916 O   0  0  0  0  0  0  0  0  0  0  0  0
    4.7173    0.7395   -0.7360 C   0  0  0  0  0  0  0  0  0  0  0  0
    5.4517   -0.2580   -0.1024 C   0  0  0  0  0  0  0  0  0  0  0  0
    5.4603   -1.5376   -0.6451 C   0  0  0  0  0  0  0  0  0  0  0  0
    4.7454   -1.8101   -1.8097 C   0  0  0  0  0  0  0  0  0  0  0  0
    4.0248   -0.7962   -2.4394 C   0  0  0  0  0  0  0  0  0  0  0  0
    4.0153    0.4898   -1.9100 C   0  0  0  0  0  0  0  0  0  0  0  0
   -0.2590    0.3659    1.7564 H   0  0  0  0  0  0  0  0  0  0  0  0
    1.7984   -1.1027    1.6186 H   0  0  0  0  0  0  0  0  0  0  0  0
    2.2721   -0.2301    0.1561 H   0  0  0  0  0  0  0  0  0  0  0  0
    0.7012   -0.2843   -1.8851 H   0  0  0  0  0  0  0  0  0  0  0  0
   -1.1330   -1.4251   -3.0491 H   0  0  0  0  0  0  0  0  0  0  0  0
   -1.5063   -4.1790    0.2091 H   0  0  0  0  0  0  0  0  0  0  0  0
    0.2473   -2.9497    1.4554 H   0  0  0  0  0  0  0  0  0  0  0  0
   -4.2300   -3.1006   -3.1188 H   0  0  0  0  0  0  0  0  0  0  0  0
   -3.4050   -1.6107   -2.6157 H   0  0  0  0  0  0  0  0  0  0  0  0
   -5.5459   -1.9421   -1.4330 H   0  0  0  0  0  0  0  0  0  0  0  0
   -5.0028   -3.5144   -0.8308 H   0  0  0  0  0  0  0  0  0  0  0  0
   -3.2625   -2.3425    0.5816 H   0  0  0  0  0  0  0  0  0  0  0  0
   -4.9107   -1.8386    0.9187 H   0  0  0  0  0  0  0  0  0  0  0  0
   -1.8700   -0.5580    0.5600 H   0  0  0  0  0  0  0  0  0  0  0  0
   -2.9714    1.9542   -0.4801 H   0  0  0  0  0  0  0  0  0  0  0  0
    1.0791    1.7783   -0.4642 H   0  0  0  0  0  0  0  0  0  0  0  0
   -1.4988    1.9796    2.2283 H   0  0  0  0  0  0  0  0  0  0  0  0
   -2.0732    3.3574    1.3180 H   0  0  0  0  0  0  0  0  0  0  0  0
   -5.5692    2.1457    2.2680 H   0  0  0  0  0  0  0  0  0  0  0  0
   -4.8301    1.8355    0.7496 H   0  0  0  0  0  0  0  0  0  0  0  0
    1.4510    0.9180    3.2613 H   0  0  0  0  0  0  0  0  0  0  0  0
    0.4963    3.0672    1.7726 H   0  0  0  0  0  0  0  0  0  0  0  0
    3.4619    0.8098    1.9802 H   0  0  0  0  0  0  0  0  0  0  0  0
    3.3556    2.4112    2.7172 H   0  0  0  0  0  0  0  0  0  0  0  0
    2.6987    3.2992    0.5494 H   0  0  0  0  0  0  0  0  0  0  0  0
    6.0079   -0.0218    0.8008 H   0  0  0  0  0  0  0  0  0  0  0  0
    6.0277   -2.3252   -0.1572 H   0  0  0  0  0  0  0  0  0  0  0  0
    4.7511   -2.8129   -2.2281 H   0  0  0  0  0  0  0  0  0  0  0  0
    3.4658   -1.0121   -3.3462 H   0  0  0  0  0  0  0  0  0  0  0  0
    3.4708    1.2951   -2.3978 H   0  0  0  0  0  0  0  0  0  0  0  0
  1 37  1  1  0  0  0
  1 24  1  0  0  0  0
  2  1  1  0  0  0  0
  2 38  1  0  0  0  0
  3  8  1  0  0  0  0
  3  2  1  0  0  0  0
  4  3  2  0  0  0  0
  5  6  2  0  0  0  0
  5  4  1  0  0  0  0
  6  7  1  0  0  0  0
  7 42  1  0  0  0  0
  7  8  2  0  0  0  0
  8 43  1  0  0  0  0
  9  6  1  0  0  0  0
 10  9  1  0  0  0  0
 10 11  1  0  0  0  0
 11 47  1  0  0  0  0
 11 12  1  0  0  0  0
 12 48  1  0  0  0  0
 12 49  1  0  0  0  0
 13 12  1  0  0  0  0
 13 15  1  0  0  0  0
 14 13  2  0  0  0  0
 15 50  1  0  0  0  0
 16 51  1  6  0  0  0
 16 15  1  0  0  0  0
 16 20  1  0  0  0  0
 17 19  1  0  0  0  0
 17 16  1  0  0  0  0
 18 17  2  0  0  0  0
 19  1  1  0  0  0  0
 20 53  1  0  0  0  0
 20 21  1  0  0  0  0
 21 22  2  0  0  0  0
 23 55  1  0  0  0  0
 23 21  1  0  0  0  0
 24 25  1  0  0  0  0
 24 57  1  1  0  0  0
 26 59  1  0  0  0  0
 26 24  1  0  0  0  0
 26 60  1  0  0  0  0
 27 26  1  0  0  0  0
 28 27  1  0  0  0  0
 28 30  2  0  0  0  0
 29 28  2  0  0  0  0
 31 32  2  0  0  0  0
 31 28  1  0  0  0  0
 32 62  1  0  0  0  0
 33 63  1  0  0  0  0
 33 32  1  0  0  0  0
 34 33  2  0  0  0  0
 35 36  2  0  0  0  0
 35 34  1  0  0  0  0
 36 31  1  0  0  0  0
 39  2  1  0  0  0  0
 40  4  1  0  0  0  0
 41  5  1  0  0  0  0
 44 10  1  0  0  0  0
 45 10  1  0  0  0  0
 46 11  1  0  0  0  0
 52 19  1  0  0  0  0
 54 20  1  0  0  0  0
 56 23  1  0  0  0  0
 58 25  1  0  0  0  0
 61 27  1  0  0  0  0
 64 34  1  0  0  0  0
 65 35  1  0  0  0  0
 66 36  1  0  0  0  0
M  END
