omegapdb_1gs5_05.xyz
 OpenBabel12161914463D

 24 23  0  0  1  0  0  0  0  0999 V2000
   -0.4800   -0.5145   -0.2859 C   0  0  2  0  0  0  0  0  0  0  0  0
   -0.9621   -1.7718    0.4115 C   0  0  0  0  0  0  0  0  0  0  0  0
   -1.9577   -1.8344    1.0945 O   0  0  0  0  0  0  0  0  0  0  0  0
   -0.1565   -2.8250    0.2017 O   0  0  0  0  0  0  0  0  0  0  0  0
    0.7115    0.1387    0.4431 C   0  0  0  0  0  0  0  0  0  0  0  0
    1.9695   -0.7184    0.4869 C   0  0  0  0  0  0  0  0  0  0  0  0
    3.1060    0.0289    1.1358 C   0  0  0  0  0  0  0  0  0  0  0  0
    3.0138    1.0858    1.7125 O   0  0  0  0  0  0  0  0  0  0  0  0
    4.2760   -0.6270    1.0086 O   0  0  0  0  0  0  0  0  0  0  0  0
   -1.6047    0.3833   -0.3717 N   0  0  0  0  0  0  0  0  0  0  0  0
   -1.6808    1.3274   -1.3505 C   0  0  0  0  0  0  0  0  0  0  0  0
   -0.7819    1.4845   -2.1633 O   0  0  0  0  0  0  0  0  0  0  0  0
   -2.9537    2.1500   -1.3352 C   0  0  0  0  0  0  0  0  0  0  0  0
   -0.1623   -0.7702   -1.3026 H   0  0  0  0  0  0  0  0  0  0  0  0
   -0.5377   -3.5641    0.7057 H   0  0  0  0  0  0  0  0  0  0  0  0
    0.4221    0.4293    1.4587 H   0  0  0  0  0  0  0  0  0  0  0  0
    0.9257    1.0661   -0.0985 H   0  0  0  0  0  0  0  0  0  0  0  0
    2.2860   -1.0255   -0.5166 H   0  0  0  0  0  0  0  0  0  0  0  0
    1.8110   -1.6435    1.0517 H   0  0  0  0  0  0  0  0  0  0  0  0
    4.9423   -0.0768    1.4524 H   0  0  0  0  0  0  0  0  0  0  0  0
   -2.3774    0.2093    0.2564 H   0  0  0  0  0  0  0  0  0  0  0  0
   -3.8352    1.5100   -1.4561 H   0  0  0  0  0  0  0  0  0  0  0  0
   -3.0557    2.6876   -0.3858 H   0  0  0  0  0  0  0  0  0  0  0  0
   -2.9181    2.8704   -2.1534 H   0  0  0  0  0  0  0  0  0  0  0  0
  1 14  1  6  0  0  0
  1  2  1  0  0  0  0
  1  5  1  0  0  0  0
  2  3  2  0  0  0  0
  4  2  1  0  0  0  0
  4 15  1  0  0  0  0
  5  6  1  0  0  0  0
  5 16  1  0  0  0  0
  6 19  1  0  0  0  0
  6  7  1  0  0  0  0
  7  8  2  0  0  0  0
  9  7  1  0  0  0  0
  9 20  1  0  0  0  0
 10  1  1  0  0  0  0
 10 21  1  0  0  0  0
 11 13  1  0  0  0  0
 11 10  1  0  0  0  0
 12 11  2  0  0  0  0
 13 23  1  0  0  0  0
 17  5  1  0  0  0  0
 18  6  1  0  0  0  0
 22 13  1  0  0  0  0
 24 13  1  0  0  0  0
M  END
