omegapdb_2byh_06.xyz
 OpenBabel12161914463D

 40 42  0  0  0  0  0  0  0  0999 V2000
    5.6063    3.2798    1.8272 O   0  0  0  0  0  0  0  0  0  0  0  0
    5.5132    2.0967    2.0938 C   0  0  0  0  0  0  0  0  0  0  0  0
    6.5665    1.4043    2.9335 C   0  0  0  0  0  0  0  0  0  0  0  0
    4.3529    1.2964    1.5951 C   0  0  0  0  0  0  0  0  0  0  0  0
    3.3804    1.9365    0.8238 C   0  0  0  0  0  0  0  0  0  0  0  0
    2.2800    1.2553    0.3281 C   0  0  0  0  0  0  0  0  0  0  0  0
    2.1373   -0.1084    0.6033 C   0  0  0  0  0  0  0  0  0  0  0  0
    3.1049   -0.7599    1.3792 C   0  0  0  0  0  0  0  0  0  0  0  0
    4.2010   -0.0643    1.8654 C   0  0  0  0  0  0  0  0  0  0  0  0
    1.0575   -0.8777    0.1299 N   0  0  0  0  0  0  0  0  0  0  0  0
    0.0295   -0.5117   -0.7068 C   0  0  0  0  0  0  0  0  0  0  0  0
   -0.0858    0.6250   -1.1431 O   0  0  0  0  0  0  0  0  0  0  0  0
   -0.8935   -1.6381   -1.0354 C   0  0  0  0  0  0  0  0  0  0  0  0
   -0.4536   -2.9672   -1.2576 C   0  0  0  0  0  0  0  0  0  0  0  0
   -1.4508   -3.7959   -1.4876 N   0  0  0  0  0  0  0  0  0  0  0  0
   -2.5419   -3.0320   -1.4054 N   0  0  0  0  0  0  0  0  0  0  0  0
   -2.2913   -1.7187   -1.1668 C   0  0  0  0  0  0  0  0  0  0  0  0
   -3.3598   -0.7034   -1.1353 C   0  0  0  0  0  0  0  0  0  0  0  0
   -3.0725    0.6335   -1.4175 C   0  0  0  0  0  0  0  0  0  0  0  0
   -4.0576    1.6027   -1.3990 C   0  0  0  0  0  0  0  0  0  0  0  0
   -3.6565    3.2680   -1.7415 Cl  0  0  0  0  0  0  0  0  0  0  0  0
   -5.3855    1.2789   -1.1112 C   0  0  0  0  0  0  0  0  0  0  0  0
   -6.3825    2.1841   -1.0822 O   0  0  0  0  0  0  0  0  0  0  0  0
   -5.6965   -0.0516   -0.8493 C   0  0  0  0  0  0  0  0  0  0  0  0
   -4.7065   -1.0203   -0.8701 C   0  0  0  0  0  0  0  0  0  0  0  0
   -5.0249   -2.3284   -0.6443 O   0  0  0  0  0  0  0  0  0  0  0  0
    6.1234    0.9730    3.8383 H   0  0  0  0  0  0  0  0  0  0  0  0
    7.0363    0.5880    2.3730 H   0  0  0  0  0  0  0  0  0  0  0  0
    7.3249    2.1373    3.2129 H   0  0  0  0  0  0  0  0  0  0  0  0
    3.5051    2.9946    0.6119 H   0  0  0  0  0  0  0  0  0  0  0  0
    1.5371    1.7642   -0.2694 H   0  0  0  0  0  0  0  0  0  0  0  0
    3.0073   -1.8205    1.5994 H   0  0  0  0  0  0  0  0  0  0  0  0
    4.9435   -0.5916    2.4585 H   0  0  0  0  0  0  0  0  0  0  0  0
    1.0315   -1.8249    0.4745 H   0  0  0  0  0  0  0  0  0  0  0  0
    0.5618   -3.3429   -1.3108 H   0  0  0  0  0  0  0  0  0  0  0  0
   -3.4615   -3.4482   -1.4417 H   0  0  0  0  0  0  0  0  0  0  0  0
   -2.0585    0.9169   -1.6595 H   0  0  0  0  0  0  0  0  0  0  0  0
   -6.0233    3.0614   -1.2824 H   0  0  0  0  0  0  0  0  0  0  0  0
   -6.7338   -0.3074   -0.6400 H   0  0  0  0  0  0  0  0  0  0  0  0
   -5.9645   -2.3837   -0.4255 H   0  0  0  0  0  0  0  0  0  0  0  0
  1  2  2  0  0  0  0
  2  3  1  0  0  0  0
  3 29  1  0  0  0  0
  3 27  1  0  0  0  0
  4  9  1  0  0  0  0
  4  2  1  0  0  0  0
  5  4  2  0  0  0  0
  6  7  2  0  0  0  0
  6  5  1  0  0  0  0
  7  8  1  0  0  0  0
  8 32  1  0  0  0  0
  8  9  2  0  0  0  0
  9 33  1  0  0  0  0
 10 34  1  0  0  0  0
 10  7  1  0  0  0  0
 11 10  1  0  0  0  0
 12 11  2  0  0  0  0
 13 11  1  0  0  0  0
 14 13  1  0  0  0  0
 15 16  1  0  0  0  0
 15 14  2  0  0  0  0
 16 17  1  0  0  0  0
 17 18  1  0  0  0  0
 17 13  2  0  0  0  0
 18 25  2  0  0  0  0
 19 20  2  0  0  0  0
 19 18  1  0  0  0  0
 20 22  1  0  0  0  0
 21 20  1  0  0  0  0
 22 23  1  0  0  0  0
 22 24  2  0  0  0  0
 24 39  1  0  0  0  0
 25 24  1  0  0  0  0
 25 26  1  0  0  0  0
 26 40  1  0  0  0  0
 28  3  1  0  0  0  0
 30  5  1  0  0  0  0
 31  6  1  0  0  0  0
 35 14  1  0  0  0  0
 36 16  1  0  0  0  0
 37 19  1  0  0  0  0
 38 23  1  0  0  0  0
M  END
