omegapdb_1v2k_17.xyz
 OpenBabel12161914463D

 61 65  0  0  0  0  0  0  0  0999 V2000
    8.3744    1.7731   -1.8049 N   0  0  0  0  0  0  0  0  0  0  0  0
    7.6853    1.0309   -2.6716 C   0  0  0  0  0  0  0  0  0  0  0  0
    6.4503    0.4512   -2.4128 C   0  0  0  0  0  0  0  0  0  0  0  0
    5.8646    0.6295   -1.1505 C   0  0  0  0  0  0  0  0  0  0  0  0
    6.5873    1.4031   -0.2292 C   0  0  0  0  0  0  0  0  0  0  0  0
    7.8058    1.9438   -0.6090 C   0  0  0  0  0  0  0  0  0  0  0  0
    4.6186    0.1057   -0.8022 N   0  0  0  0  0  0  0  0  0  0  0  0
    3.8152   -0.4701   -1.8737 C   0  0  0  0  0  0  0  0  0  0  0  0
    2.3619   -0.6461   -1.4460 C   0  0  0  0  0  0  0  0  0  0  0  0
    2.3057   -1.4849   -0.1651 C   0  0  0  0  0  0  0  0  0  0  0  0
    3.1266   -0.8038    0.9297 C   0  0  0  0  0  0  0  0  0  0  0  0
    4.5639   -0.6696    0.4385 C   0  0  0  0  0  0  0  0  0  0  0  0
    0.8875   -1.9376    0.1675 C   0  0  0  0  0  0  0  0  0  0  0  0
    0.4980   -3.0129   -0.2737 O   0  0  0  0  0  0  0  0  0  0  0  0
    0.0516   -1.1646    0.9267 N   0  0  0  0  0  0  0  0  0  0  0  0
   -1.2284   -1.7702    1.2972 C   0  0  0  0  0  0  0  0  0  0  0  0
   -1.7617   -1.1266    2.5669 C   0  0  0  0  0  0  0  0  0  0  0  0
   -1.9370    0.3146    2.3745 N   0  0  0  0  0  0  0  0  0  0  0  0
   -1.1555    0.9338    1.3029 C   0  0  0  0  0  0  0  0  0  0  0  0
    0.2115    0.2596    1.2182 C   0  0  0  0  0  0  0  0  0  0  0  0
   -3.3559    1.0391    2.8315 S   0  0  0  0  0  0  0  0  0  0  0  0
   -3.8088    0.3742    4.0392 O   0  0  0  0  0  0  0  0  0  0  0  0
   -3.1228    2.4717    2.7831 O   0  0  0  0  0  0  0  0  0  0  0  0
   -4.4929    0.6259    1.5277 C   0  0  0  0  0  0  0  0  0  0  0  0
   -4.5013    1.3731    0.3812 C   0  0  0  0  0  0  0  0  0  0  0  0
   -5.3397    0.9883   -0.7024 C   0  0  0  0  0  0  0  0  0  0  0  0
   -6.1678   -0.1536   -0.5638 C   0  0  0  0  0  0  0  0  0  0  0  0
   -6.1465   -0.8826    0.6569 C   0  0  0  0  0  0  0  0  0  0  0  0
   -5.3300   -0.5016    1.6880 C   0  0  0  0  0  0  0  0  0  0  0  0
   -7.0058   -0.5411   -1.6445 C   0  0  0  0  0  0  0  0  0  0  0  0
   -7.0041    0.1851   -2.8028 C   0  0  0  0  0  0  0  0  0  0  0  0
   -6.1813    1.3271   -2.9571 C   0  0  0  0  0  0  0  0  0  0  0  0
   -5.3719    1.7116   -1.9221 C   0  0  0  0  0  0  0  0  0  0  0  0
   -8.0312   -0.2877   -4.1289 Cl  0  0  0  0  0  0  0  0  0  0  0  0
    8.1446    0.8877   -3.6499 H   0  0  0  0  0  0  0  0  0  0  0  0
    5.9706   -0.1482   -3.1782 H   0  0  0  0  0  0  0  0  0  0  0  0
    6.1857    1.6052    0.7593 H   0  0  0  0  0  0  0  0  0  0  0  0
    8.3666    2.5471    0.1042 H   0  0  0  0  0  0  0  0  0  0  0  0
    3.8589    0.1989   -2.7374 H   0  0  0  0  0  0  0  0  0  0  0  0
    4.2187   -1.4524   -2.1877 H   0  0  0  0  0  0  0  0  0  0  0  0
    1.9129    0.3417   -1.2866 H   0  0  0  0  0  0  0  0  0  0  0  0
    1.8010   -1.1361   -2.2512 H   0  0  0  0  0  0  0  0  0  0  0  0
    2.7941   -2.4406   -0.3954 H   0  0  0  0  0  0  0  0  0  0  0  0
    3.0971   -1.3815    1.8604 H   0  0  0  0  0  0  0  0  0  0  0  0
    2.7530    0.2016    1.1483 H   0  0  0  0  0  0  0  0  0  0  0  0
    5.1748   -0.1714    1.1929 H   0  0  0  0  0  0  0  0  0  0  0  0
    5.0031   -1.6731    0.2866 H   0  0  0  0  0  0  0  0  0  0  0  0
   -1.9535   -1.6726    0.4751 H   0  0  0  0  0  0  0  0  0  0  0  0
   -1.0647   -2.8372    1.4488 H   0  0  0  0  0  0  0  0  0  0  0  0
   -2.7173   -1.5772    2.8504 H   0  0  0  0  0  0  0  0  0  0  0  0
   -1.0637   -1.2961    3.3955 H   0  0  0  0  0  0  0  0  0  0  0  0
   -1.6660    0.8501    0.3307 H   0  0  0  0  0  0  0  0  0  0  0  0
   -1.0397    1.9942    1.5370 H   0  0  0  0  0  0  0  0  0  0  0  0
    0.7489    0.4105    2.1650 H   0  0  0  0  0  0  0  0  0  0  0  0
    0.7877    0.7373    0.4218 H   0  0  0  0  0  0  0  0  0  0  0  0
   -3.8804    2.2591    0.2926 H   0  0  0  0  0  0  0  0  0  0  0  0
   -6.7922   -1.7496    0.7586 H   0  0  0  0  0  0  0  0  0  0  0  0
   -5.3200   -1.0379    2.6324 H   0  0  0  0  0  0  0  0  0  0  0  0
   -7.6447   -1.4138   -1.5425 H   0  0  0  0  0  0  0  0  0  0  0  0
   -6.2060    1.8784   -3.8921 H   0  0  0  0  0  0  0  0  0  0  0  0
   -4.7355    2.5878   -2.0244 H   0  0  0  0  0  0  0  0  0  0  0  0
  1  6  2  0  0  0  0
  2  3  2  0  0  0  0
  2  1  1  0  0  0  0
  3  4  1  0  0  0  0
  4  7  1  0  0  0  0
  4  5  2  0  0  0  0
  5 37  1  0  0  0  0
  6  5  1  0  0  0  0
  6 38  1  0  0  0  0
  7 12  1  0  0  0  0
  8  9  1  0  0  0  0
  8  7  1  0  0  0  0
  9 41  1  0  0  0  0
  9 10  1  0  0  0  0
 10 13  1  0  0  0  0
 10 11  1  0  0  0  0
 11 45  1  0  0  0  0
 11 44  1  0  0  0  0
 12 11  1  0  0  0  0
 12 46  1  0  0  0  0
 13 15  1  0  0  0  0
 14 13  2  0  0  0  0
 15 20  1  0  0  0  0
 15 16  1  0  0  0  0
 16 49  1  0  0  0  0
 16 17  1  0  0  0  0
 17 50  1  0  0  0  0
 17 51  1  0  0  0  0
 18 17  1  0  0  0  0
 18 21  1  0  0  0  0
 19 53  1  0  0  0  0
 19 18  1  0  0  0  0
 20 19  1  0  0  0  0
 20 54  1  0  0  0  0
 21 22  2  0  0  0  0
 23 21  2  0  0  0  0
 24 29  1  0  0  0  0
 24 21  1  0  0  0  0
 25 24  2  0  0  0  0
 26 27  1  0  0  0  0
 26 25  1  0  0  0  0
 27 28  1  0  0  0  0
 28 57  1  0  0  0  0
 28 29  2  0  0  0  0
 29 58  1  0  0  0  0
 30 59  1  0  0  0  0
 30 27  2  0  0  0  0
 31 30  1  0  0  0  0
 32 31  2  0  0  0  0
 32 33  1  0  0  0  0
 33 26  2  0  0  0  0
 34 31  1  0  0  0  0
 35  2  1  0  0  0  0
 36  3  1  0  0  0  0
 39  8  1  0  0  0  0
 40  8  1  0  0  0  0
 42  9  1  0  0  0  0
 43 10  1  0  0  0  0
 47 12  1  0  0  0  0
 48 16  1  0  0  0  0
 52 19  1  0  0  0  0
 55 20  1  0  0  0  0
 56 25  1  0  0  0  0
 60 32  1  0  0  0  0
 61 33  1  0  0  0  0
M  END
