omegapdb_1m5f_09.xyz
 OpenBabel12161914463D

 25 25  0  0  1  0  0  0  0  0999 V2000
   -1.5813   -3.6858   -0.6080 O   0  0  0  0  0  0  0  0  0  0  0  0
   -0.7662   -2.6328   -0.6835 C   0  0  0  0  0  0  0  0  0  0  0  0
    0.4044   -2.7375   -0.9535 O   0  0  0  0  0  0  0  0  0  0  0  0
   -1.4174   -1.3166   -0.3992 C   0  0  0  0  0  0  0  0  0  0  0  0
   -2.6714   -1.2969   -0.0292 N   0  0  0  0  0  0  0  0  0  0  0  0
   -2.9751    0.0184    0.1913 O   0  0  0  0  0  0  0  0  0  0  0  0
   -1.8940    0.7819   -0.0600 C   0  0  0  0  0  0  0  0  0  0  0  0
   -0.8512   -0.0072   -0.4433 C   0  0  0  0  0  0  0  0  0  0  0  0
    0.5632    0.3791   -0.7374 C   0  0  0  0  0  0  0  0  0  0  0  0
    1.4885    0.0445    0.4439 C   0  0  2  0  0  0  0  0  0  0  0  0
    1.0883    0.7719    1.6357 N   0  0  0  0  0  0  0  0  0  0  0  0
    2.9409    0.3834    0.1556 C   0  0  0  0  0  0  0  0  0  0  0  0
    3.7071    0.8567    0.9619 O   0  0  0  0  0  0  0  0  0  0  0  0
    3.3257    0.0571   -1.0913 O   0  0  0  0  0  0  0  0  0  0  0  0
   -2.0532    2.2477    0.1463 C   0  0  0  0  0  0  0  0  0  0  0  0
   -2.4740   -3.3873   -0.3604 H   0  0  0  0  0  0  0  0  0  0  0  0
    0.9155   -0.1458   -1.6278 H   0  0  0  0  0  0  0  0  0  0  0  0
    0.6211    1.4566   -0.9355 H   0  0  0  0  0  0  0  0  0  0  0  0
    1.4593   -1.0526    0.5609 H   0  0  0  0  0  0  0  0  0  0  0  0
    1.8677    0.8056    2.2857 H   0  0  0  0  0  0  0  0  0  0  0  0
    0.3216    0.2849    2.0875 H   0  0  0  0  0  0  0  0  0  0  0  0
    4.2673    0.2891   -1.1512 H   0  0  0  0  0  0  0  0  0  0  0  0
   -2.9359    2.6179   -0.3801 H   0  0  0  0  0  0  0  0  0  0  0  0
   -2.1742    2.4785    1.2101 H   0  0  0  0  0  0  0  0  0  0  0  0
   -1.1763    2.7891   -0.2184 H   0  0  0  0  0  0  0  0  0  0  0  0
  1 16  1  0  0  0  0
  2  1  1  0  0  0  0
  2  4  1  0  0  0  0
  3  2  2  0  0  0  0
  4  5  2  0  0  0  0
  5  6  1  0  0  0  0
  7 15  1  0  0  0  0
  7  6  1  0  0  0  0
  8  4  1  0  0  0  0
  8  7  2  0  0  0  0
  9  8  1  0  0  0  0
  9 10  1  0  0  0  0
 10 19  1  1  0  0  0
 10 11  1  0  0  0  0
 11 21  1  0  0  0  0
 11 20  1  0  0  0  0
 12 10  1  0  0  0  0
 12 13  2  0  0  0  0
 14 12  1  0  0  0  0
 15 24  1  0  0  0  0
 17  9  1  0  0  0  0
 18  9  1  0  0  0  0
 22 14  1  0  0  0  0
 23 15  1  0  0  0  0
 25 15  1  0  0  0  0
M  END
