omegapdb_1v2k_09.xyz
 OpenBabel12161914463D

 61 65  0  0  0  0  0  0  0  0999 V2000
    8.8899    1.4490   -1.0014 N   0  0  0  0  0  0  0  0  0  0  0  0
    8.4617    0.2254   -0.6828 C   0  0  0  0  0  0  0  0  0  0  0  0
    7.1305   -0.1554   -0.6214 C   0  0  0  0  0  0  0  0  0  0  0  0
    6.1335    0.7840   -0.9260 C   0  0  0  0  0  0  0  0  0  0  0  0
    6.5738    2.0718   -1.2675 C   0  0  0  0  0  0  0  0  0  0  0  0
    7.9368    2.3376   -1.2824 C   0  0  0  0  0  0  0  0  0  0  0  0
    4.7893    0.4095   -0.9073 N   0  0  0  0  0  0  0  0  0  0  0  0
    4.3148   -0.2437    0.3122 C   0  0  0  0  0  0  0  0  0  0  0  0
    2.9904   -0.9565    0.0780 C   0  0  0  0  0  0  0  0  0  0  0  0
    1.9441    0.0230   -0.4707 C   0  0  0  0  0  0  0  0  0  0  0  0
    2.4893    0.6737   -1.7388 C   0  0  0  0  0  0  0  0  0  0  0  0
    3.8252    1.3493   -1.4619 C   0  0  0  0  0  0  0  0  0  0  0  0
    0.6252   -0.6883   -0.7644 C   0  0  0  0  0  0  0  0  0  0  0  0
    0.2885   -0.9468   -1.9126 O   0  0  0  0  0  0  0  0  0  0  0  0
   -0.1656   -1.0549    0.2900 N   0  0  0  0  0  0  0  0  0  0  0  0
    0.0939   -0.7660    1.6974 C   0  0  0  0  0  0  0  0  0  0  0  0
   -1.2166   -0.4189    2.3998 C   0  0  0  0  0  0  0  0  0  0  0  0
   -2.1434   -1.5540    2.3002 N   0  0  0  0  0  0  0  0  0  0  0  0
   -1.9071   -2.4930    1.2030 C   0  0  0  0  0  0  0  0  0  0  0  0
   -1.4171   -1.7513   -0.0277 C   0  0  0  0  0  0  0  0  0  0  0  0
   -3.6888   -1.3230    2.8582 S   0  0  0  0  0  0  0  0  0  0  0  0
   -3.5782   -0.4886    4.0418 O   0  0  0  0  0  0  0  0  0  0  0  0
   -4.3250   -2.6279    2.8909 O   0  0  0  0  0  0  0  0  0  0  0  0
   -4.4928   -0.3579    1.5926 C   0  0  0  0  0  0  0  0  0  0  0  0
   -5.0841   -0.9860    0.5300 C   0  0  0  0  0  0  0  0  0  0  0  0
   -5.6955   -0.2142   -0.4985 C   0  0  0  0  0  0  0  0  0  0  0  0
   -5.6742    1.2009   -0.4075 C   0  0  0  0  0  0  0  0  0  0  0  0
   -5.0629    1.8115    0.7234 C   0  0  0  0  0  0  0  0  0  0  0  0
   -4.4890    1.0520    1.7088 C   0  0  0  0  0  0  0  0  0  0  0  0
   -6.2699    1.9730   -1.4429 C   0  0  0  0  0  0  0  0  0  0  0  0
   -6.8645    1.3470   -2.5033 C   0  0  0  0  0  0  0  0  0  0  0  0
   -6.9057   -0.0649   -2.6009 C   0  0  0  0  0  0  0  0  0  0  0  0
   -6.3300   -0.8196   -1.6143 C   0  0  0  0  0  0  0  0  0  0  0  0
   -7.5952    2.2888   -3.7752 Cl  0  0  0  0  0  0  0  0  0  0  0  0
    9.2352   -0.5054   -0.4495 H   0  0  0  0  0  0  0  0  0  0  0  0
    6.8691   -1.1801   -0.3756 H   0  0  0  0  0  0  0  0  0  0  0  0
    5.8734    2.8680   -1.4934 H   0  0  0  0  0  0  0  0  0  0  0  0
    8.2801    3.3386   -1.5437 H   0  0  0  0  0  0  0  0  0  0  0  0
    4.2034    0.4963    1.1268 H   0  0  0  0  0  0  0  0  0  0  0  0
    5.0678   -0.9612    0.6419 H   0  0  0  0  0  0  0  0  0  0  0  0
    2.6518   -1.4171    1.0134 H   0  0  0  0  0  0  0  0  0  0  0  0
    3.1330   -1.7665   -0.6475 H   0  0  0  0  0  0  0  0  0  0  0  0
    1.7792    0.8176    0.2723 H   0  0  0  0  0  0  0  0  0  0  0  0
    1.7811    1.4149   -2.1238 H   0  0  0  0  0  0  0  0  0  0  0  0
    2.6021   -0.0934   -2.5123 H   0  0  0  0  0  0  0  0  0  0  0  0
    4.2294    1.7450   -2.3979 H   0  0  0  0  0  0  0  0  0  0  0  0
    3.6675    2.2059   -0.7774 H   0  0  0  0  0  0  0  0  0  0  0  0
    0.5629   -1.6204    2.2101 H   0  0  0  0  0  0  0  0  0  0  0  0
    0.7747    0.0800    1.7882 H   0  0  0  0  0  0  0  0  0  0  0  0
   -1.0466   -0.2061    3.4582 H   0  0  0  0  0  0  0  0  0  0  0  0
   -1.6465    0.4840    1.9409 H   0  0  0  0  0  0  0  0  0  0  0  0
   -2.8257   -3.0467    0.9983 H   0  0  0  0  0  0  0  0  0  0  0  0
   -1.1507   -3.2221    1.5183 H   0  0  0  0  0  0  0  0  0  0  0  0
   -2.1795   -1.0341   -0.3687 H   0  0  0  0  0  0  0  0  0  0  0  0
   -1.2299   -2.4418   -0.8514 H   0  0  0  0  0  0  0  0  0  0  0  0
   -5.1166   -2.0688    0.4691 H   0  0  0  0  0  0  0  0  0  0  0  0
   -5.0605    2.8951    0.7965 H   0  0  0  0  0  0  0  0  0  0  0  0
   -4.0404    1.5055    2.5884 H   0  0  0  0  0  0  0  0  0  0  0  0
   -6.2499    3.0579   -1.3858 H   0  0  0  0  0  0  0  0  0  0  0  0
   -7.3907   -0.5254   -3.4561 H   0  0  0  0  0  0  0  0  0  0  0  0
   -6.3551   -1.9058   -1.6746 H   0  0  0  0  0  0  0  0  0  0  0  0
  1  2  2  0  0  0  0
  2  3  1  0  0  0  0
  2 35  1  0  0  0  0
  3 36  1  0  0  0  0
  4  7  1  0  0  0  0
  4  3  2  0  0  0  0
  5  4  1  0  0  0  0
  6  5  2  0  0  0  0
  6  1  1  0  0  0  0
  7  8  1  0  0  0  0
  8 40  1  0  0  0  0
  8 39  1  0  0  0  0
  9  8  1  0  0  0  0
  9 41  1  0  0  0  0
 10  9  1  0  0  0  0
 10 43  1  0  0  0  0
 11 12  1  0  0  0  0
 11 10  1  0  0  0  0
 12  7  1  0  0  0  0
 12 47  1  0  0  0  0
 13 10  1  0  0  0  0
 13 15  1  0  0  0  0
 14 13  2  0  0  0  0
 15 16  1  0  0  0  0
 16 49  1  0  0  0  0
 16 48  1  0  0  0  0
 16 17  1  0  0  0  0
 17 50  1  0  0  0  0
 18 17  1  0  0  0  0
 18 21  1  0  0  0  0
 19 53  1  0  0  0  0
 19 18  1  0  0  0  0
 20 15  1  0  0  0  0
 20 19  1  0  0  0  0
 21 23  2  0  0  0  0
 21 22  2  0  0  0  0
 24 29  1  0  0  0  0
 24 21  1  0  0  0  0
 25 24  2  0  0  0  0
 26 27  1  0  0  0  0
 26 25  1  0  0  0  0
 27 28  1  0  0  0  0
 28 57  1  0  0  0  0
 28 29  2  0  0  0  0
 29 58  1  0  0  0  0
 30 59  1  0  0  0  0
 30 27  2  0  0  0  0
 31 30  1  0  0  0  0
 32 31  2  0  0  0  0
 32 33  1  0  0  0  0
 33 26  2  0  0  0  0
 34 31  1  0  0  0  0
 37  5  1  0  0  0  0
 38  6  1  0  0  0  0
 42  9  1  0  0  0  0
 44 11  1  0  0  0  0
 45 11  1  0  0  0  0
 46 12  1  0  0  0  0
 51 17  1  0  0  0  0
 52 19  1  0  0  0  0
 54 20  1  0  0  0  0
 55 20  1  0  0  0  0
 56 25  1  0  0  0  0
 60 32  1  0  0  0  0
 61 33  1  0  0  0  0
M  END
