omegapdb_1m5f_04.xyz
 OpenBabel12161914463D

 25 25  0  0  1  0  0  0  0  0999 V2000
   -0.8195   -3.2985   -1.7401 O   0  0  0  0  0  0  0  0  0  0  0  0
   -0.3110   -2.5464   -0.7647 C   0  0  0  0  0  0  0  0  0  0  0  0
    0.6659   -2.8696   -0.1376 O   0  0  0  0  0  0  0  0  0  0  0  0
   -1.0573   -1.2706   -0.5104 C   0  0  0  0  0  0  0  0  0  0  0  0
   -2.1315   -1.0116   -1.2110 N   0  0  0  0  0  0  0  0  0  0  0  0
   -2.5798    0.2035   -0.7740 O   0  0  0  0  0  0  0  0  0  0  0  0
   -1.7698    0.6614    0.1979 C   0  0  0  0  0  0  0  0  0  0  0  0
   -0.7622   -0.2319    0.4202 C   0  0  0  0  0  0  0  0  0  0  0  0
    0.4350   -0.0732    1.3045 C   0  0  0  0  0  0  0  0  0  0  0  0
    1.5929    0.6683    0.6024 C   0  0  2  0  0  0  0  0  0  0  0  0
    1.1596    1.9944    0.1864 N   0  0  0  0  0  0  0  0  0  0  0  0
    2.0577   -0.1952   -0.5626 C   0  0  0  0  0  0  0  0  0  0  0  0
    1.6070   -0.1112   -1.6821 O   0  0  0  0  0  0  0  0  0  0  0  0
    2.9947   -1.0820   -0.2016 O   0  0  0  0  0  0  0  0  0  0  0  0
   -2.0911    1.9948    0.7705 C   0  0  0  0  0  0  0  0  0  0  0  0
   -1.6053   -2.8593   -2.1096 H   0  0  0  0  0  0  0  0  0  0  0  0
    0.1660    0.5142    2.1892 H   0  0  0  0  0  0  0  0  0  0  0  0
    0.7832   -1.0530    1.6429 H   0  0  0  0  0  0  0  0  0  0  0  0
    2.4195    0.7599    1.3120 H   0  0  0  0  0  0  0  0  0  0  0  0
    0.6691    1.8950   -0.7005 H   0  0  0  0  0  0  0  0  0  0  0  0
    1.9740    2.5665   -0.0195 H   0  0  0  0  0  0  0  0  0  0  0  0
    3.1050   -1.6940   -0.9479 H   0  0  0  0  0  0  0  0  0  0  0  0
   -1.8934    2.7840    0.0365 H   0  0  0  0  0  0  0  0  0  0  0  0
   -3.1434    2.0607    1.0559 H   0  0  0  0  0  0  0  0  0  0  0  0
   -1.4652    2.1939    1.6435 H   0  0  0  0  0  0  0  0  0  0  0  0
  1  2  1  0  0  0  0
  2  4  1  0  0  0  0
  2  3  2  0  0  0  0
  4  8  1  0  0  0  0
  5  6  1  0  0  0  0
  5  4  2  0  0  0  0
  6  7  1  0  0  0  0
  7  8  2  0  0  0  0
  7 15  1  0  0  0  0
  8  9  1  0  0  0  0
  9 18  1  0  0  0  0
  9 17  1  0  0  0  0
 10  9  1  0  0  0  0
 10 19  1  1  0  0  0
 11 10  1  0  0  0  0
 12 14  1  0  0  0  0
 12 10  1  0  0  0  0
 13 12  2  0  0  0  0
 15 24  1  0  0  0  0
 15 25  1  0  0  0  0
 16  1  1  0  0  0  0
 20 11  1  0  0  0  0
 21 11  1  0  0  0  0
 22 14  1  0  0  0  0
 23 15  1  0  0  0  0
M  END
