omegapdb_1gs5_10.xyz
 OpenBabel12161914463D

 24 23  0  0  1  0  0  0  0  0999 V2000
   -0.2991   -0.2801   -0.3015 C   0  0  2  0  0  0  0  0  0  0  0  0
   -0.5926   -1.4450    0.6258 C   0  0  0  0  0  0  0  0  0  0  0  0
   -1.4901   -1.4623    1.4325 O   0  0  0  0  0  0  0  0  0  0  0  0
    0.2490   -2.4706    0.4293 O   0  0  0  0  0  0  0  0  0  0  0  0
    0.9354    0.5438    0.1246 C   0  0  0  0  0  0  0  0  0  0  0  0
    2.2305   -0.2540    0.2407 C   0  0  0  0  0  0  0  0  0  0  0  0
    2.3869   -0.9414    1.5869 C   0  0  0  0  0  0  0  0  0  0  0  0
    1.6436   -0.7799    2.5170 O   0  0  0  0  0  0  0  0  0  0  0  0
    3.4541   -1.7636    1.7021 O   0  0  0  0  0  0  0  0  0  0  0  0
   -1.4816    0.5417   -0.3494 N   0  0  0  0  0  0  0  0  0  0  0  0
   -1.7409    1.3443   -1.4190 C   0  0  0  0  0  0  0  0  0  0  0  0
   -0.9635    1.4310   -2.3582 O   0  0  0  0  0  0  0  0  0  0  0  0
   -3.0509    2.1021   -1.3346 C   0  0  0  0  0  0  0  0  0  0  0  0
   -0.1121   -0.6811   -1.3031 H   0  0  0  0  0  0  0  0  0  0  0  0
    0.0160   -3.1418    1.0937 H   0  0  0  0  0  0  0  0  0  0  0  0
    0.7260    1.0441    1.0762 H   0  0  0  0  0  0  0  0  0  0  0  0
    1.0434    1.3164   -0.6424 H   0  0  0  0  0  0  0  0  0  0  0  0
    2.3097   -1.0026   -0.5566 H   0  0  0  0  0  0  0  0  0  0  0  0
    3.0889    0.4215    0.1223 H   0  0  0  0  0  0  0  0  0  0  0  0
    3.9307   -1.8131    0.8620 H   0  0  0  0  0  0  0  0  0  0  0  0
   -2.1528    0.4154    0.3960 H   0  0  0  0  0  0  0  0  0  0  0  0
   -3.8983    1.4107   -1.2667 H   0  0  0  0  0  0  0  0  0  0  0  0
   -3.0704    2.7477   -0.4495 H   0  0  0  0  0  0  0  0  0  0  0  0
   -3.1618    2.7169   -2.2280 H   0  0  0  0  0  0  0  0  0  0  0  0
  1 14  1  6  0  0  0
  1  5  1  0  0  0  0
  1  2  1  0  0  0  0
  2  3  2  0  0  0  0
  4  2  1  0  0  0  0
  4 15  1  0  0  0  0
  5  6  1  0  0  0  0
  5 16  1  0  0  0  0
  6  7  1  0  0  0  0
  7  9  1  0  0  0  0
  7  8  2  0  0  0  0
 10  1  1  0  0  0  0
 10 21  1  0  0  0  0
 11 13  1  0  0  0  0
 11 10  1  0  0  0  0
 12 11  2  0  0  0  0
 13 22  1  0  0  0  0
 13 23  1  0  0  0  0
 17  5  1  0  0  0  0
 18  6  1  0  0  0  0
 19  6  1  0  0  0  0
 20  9  1  0  0  0  0
 24 13  1  0  0  0  0
M  END
