omegapdb_1xom_02.xyz
 OpenBabel12161914463D

 50 52  0  0  1  0  0  0  0  0999 V2000
    6.2006    2.5596   -0.3527 O   0  0  0  0  0  0  0  0  0  0  0  0
    6.0551    1.2239   -0.4999 C   0  0  0  0  0  0  0  0  0  0  0  0
    7.0084    0.4840   -0.5595 O   0  0  0  0  0  0  0  0  0  0  0  0
    4.6009    0.8044   -0.6086 C   0  0  1  0  0  0  0  0  0  0  0  0
    4.4742   -0.7204   -0.5932 C   0  0  0  0  0  0  0  0  0  0  0  0
    3.0188   -1.1489   -0.7580 C   0  0  0  0  0  0  0  0  0  0  0  0
    2.0922   -0.5146    0.3161 C   0  0  2  0  0  0  0  0  0  0  0  0
    2.2556    1.0234    0.2587 C   0  0  0  0  0  0  0  0  0  0  0  0
    3.7061    1.4596    0.4549 C   0  0  0  0  0  0  0  0  0  0  0  0
    2.5428   -0.9747    1.6559 C   0  0  0  0  0  0  0  0  0  0  0  0
    2.8901   -1.3368    2.6992 N   0  0  0  0  0  0  0  0  0  0  0  0
    0.6442   -0.9918    0.1168 C   0  0  0  0  0  0  0  0  0  0  0  0
    0.3328   -2.3220    0.3796 C   0  0  0  0  0  0  0  0  0  0  0  0
   -0.9454   -2.8259    0.1377 C   0  0  0  0  0  0  0  0  0  0  0  0
   -1.9444   -1.9975   -0.3581 C   0  0  0  0  0  0  0  0  0  0  0  0
   -3.2166   -2.3871   -0.6325 O   0  0  0  0  0  0  0  0  0  0  0  0
   -3.5410   -3.7471   -0.4412 C   0  0  0  0  0  0  0  0  0  0  0  0
   -1.6474   -0.6431   -0.5981 C   0  0  0  0  0  0  0  0  0  0  0  0
   -0.3679   -0.1608   -0.3678 C   0  0  0  0  0  0  0  0  0  0  0  0
   -2.6146    0.1901   -1.0989 O   0  0  0  0  0  0  0  0  0  0  0  0
   -3.5502    0.6394   -0.1148 C   0  0  0  0  0  0  0  0  0  0  0  0
   -4.6535    1.4469   -0.7814 C   0  0  0  0  0  0  0  0  0  0  0  0
   -5.2878    2.2080    0.3893 C   0  0  0  0  0  0  0  0  0  0  0  0
   -4.0992    2.5542    1.3209 C   0  0  0  0  0  0  0  0  0  0  0  0
   -2.9410    1.6164    0.9014 C   0  0  0  0  0  0  0  0  0  0  0  0
    7.1581    2.7179   -0.3017 H   0  0  0  0  0  0  0  0  0  0  0  0
    4.2610    1.1725   -1.5904 H   0  0  0  0  0  0  0  0  0  0  0  0
    4.8741   -1.1055    0.3518 H   0  0  0  0  0  0  0  0  0  0  0  0
    5.0939   -1.1482   -1.3871 H   0  0  0  0  0  0  0  0  0  0  0  0
    2.6469   -0.8330   -1.7395 H   0  0  0  0  0  0  0  0  0  0  0  0
    2.9249   -2.2404   -0.7270 H   0  0  0  0  0  0  0  0  0  0  0  0
    1.9219    1.3619   -0.7309 H   0  0  0  0  0  0  0  0  0  0  0  0
    1.6037    1.4928    1.0032 H   0  0  0  0  0  0  0  0  0  0  0  0
    3.7862    2.5481    0.3819 H   0  0  0  0  0  0  0  0  0  0  0  0
    4.0507    1.1794    1.4581 H   0  0  0  0  0  0  0  0  0  0  0  0
    1.0916   -2.9899    0.7849 H   0  0  0  0  0  0  0  0  0  0  0  0
   -1.1526   -3.8687    0.3457 H   0  0  0  0  0  0  0  0  0  0  0  0
   -4.5797   -3.8571   -0.7564 H   0  0  0  0  0  0  0  0  0  0  0  0
   -3.4452   -4.0333    0.6147 H   0  0  0  0  0  0  0  0  0  0  0  0
   -2.9054   -4.4016   -1.0527 H   0  0  0  0  0  0  0  0  0  0  0  0
   -0.1825    0.8892   -0.5758 H   0  0  0  0  0  0  0  0  0  0  0  0
   -3.9764   -0.2291    0.4040 H   0  0  0  0  0  0  0  0  0  0  0  0
   -5.3554    0.8132   -1.3348 H   0  0  0  0  0  0  0  0  0  0  0  0
   -4.1881    2.1416   -1.4928 H   0  0  0  0  0  0  0  0  0  0  0  0
   -5.9954    1.5542    0.9140 H   0  0  0  0  0  0  0  0  0  0  0  0
   -5.8461    3.0944    0.0708 H   0  0  0  0  0  0  0  0  0  0  0  0
   -3.7982    3.5999    1.1984 H   0  0  0  0  0  0  0  0  0  0  0  0
   -4.3722    2.4214    2.3725 H   0  0  0  0  0  0  0  0  0  0  0  0
   -2.4796    1.0961    1.7474 H   0  0  0  0  0  0  0  0  0  0  0  0
   -2.1492    2.1851    0.4012 H   0  0  0  0  0  0  0  0  0  0  0  0
  1 26  1  0  0  0  0
  2  1  1  0  0  0  0
  3  2  2  0  0  0  0
  4 27  1  6  0  0  0
  4  5  1  0  0  0  0
  4  2  1  0  0  0  0
  4  9  1  0  0  0  0
  5 28  1  0  0  0  0
  6 31  1  0  0  0  0
  6  5  1  0  0  0  0
  6  7  1  0  0  0  0
  7 10  1  1  0  0  0
  8  7  1  0  0  0  0
  8  9  1  0  0  0  0
  8 33  1  0  0  0  0
  9 35  1  0  0  0  0
 10 11  3  0  0  0  0
 12  7  1  0  0  0  0
 12 13  2  0  0  0  0
 13 36  1  0  0  0  0
 14 37  1  0  0  0  0
 14 13  1  0  0  0  0
 15 14  2  0  0  0  0
 16 17  1  0  0  0  0
 16 15  1  0  0  0  0
 17 39  1  0  0  0  0
 18 19  2  0  0  0  0
 18 15  1  0  0  0  0
 19 12  1  0  0  0  0
 20 18  1  0  0  0  0
 20 21  1  0  0  0  0
 21 42  1  0  0  0  0
 21 25  1  0  0  0  0
 22 21  1  0  0  0  0
 22 23  1  0  0  0  0
 23 45  1  0  0  0  0
 23 24  1  0  0  0  0
 24 48  1  0  0  0  0
 25 24  1  0  0  0  0
 25 49  1  0  0  0  0
 29  5  1  0  0  0  0
 30  6  1  0  0  0  0
 32  8  1  0  0  0  0
 34  9  1  0  0  0  0
 38 17  1  0  0  0  0
 40 17  1  0  0  0  0
 41 19  1  0  0  0  0
 43 22  1  0  0  0  0
 44 22  1  0  0  0  0
 46 23  1  0  0  0  0
 47 24  1  0  0  0  0
 50 25  1  0  0  0  0
M  END
