omegapdb_2f7p_21.xyz
 OpenBabel12161914463D

 34 35  0  0  1  0  0  0  0  0999 V2000
   -1.1052   -1.0944    0.2451 C   0  0  1  0  0  0  0  0  0  0  0  0
    0.3292   -0.9436    0.3488 N   0  0  0  0  0  0  0  0  0  0  0  0
    0.8867    0.3791    0.5968 C   0  0  0  0  0  0  0  0  0  0  0  0
    2.3564    0.4158    0.2415 C   0  0  0  0  0  0  0  0  0  0  0  0
    2.8286   -0.3026   -0.8577 C   0  0  0  0  0  0  0  0  0  0  0  0
    4.1717   -0.2453   -1.2133 C   0  0  0  0  0  0  0  0  0  0  0  0
    5.0594    0.5296   -0.4718 C   0  0  0  0  0  0  0  0  0  0  0  0
    4.5957    1.2486    0.6257 C   0  0  0  0  0  0  0  0  0  0  0  0
    3.2500    1.1922    0.9766 C   0  0  0  0  0  0  0  0  0  0  0  0
   -2.0085   -0.5228    1.3556 C   0  0  1  0  0  0  0  0  0  0  0  0
   -1.7751    0.8483    1.6473 O   0  0  0  0  0  0  0  0  0  0  0  0
   -3.3991   -0.6522    0.7285 C   0  0  1  0  0  0  0  0  0  0  0  0
   -4.3824    0.1123    1.3901 O   0  0  0  0  0  0  0  0  0  0  0  0
   -3.1724   -0.1684   -0.7252 C   0  0  1  0  0  0  0  0  0  0  0  0
   -3.2647    1.2504   -0.7386 O   0  0  0  0  0  0  0  0  0  0  0  0
   -1.7090   -0.5236   -1.0618 C   0  0  2  0  0  0  0  0  0  0  0  0
   -1.4593   -1.7024   -2.4204 S   0  0  0  0  0  0  0  0  0  0  0  0
   -1.2996   -2.1751    0.2365 H   0  0  0  0  0  0  0  0  0  0  0  0
    0.6876   -1.6037    1.0305 H   0  0  0  0  0  0  0  0  0  0  0  0
    0.3538    1.1021   -0.0328 H   0  0  0  0  0  0  0  0  0  0  0  0
    0.7399    0.7093    1.6353 H   0  0  0  0  0  0  0  0  0  0  0  0
    2.1270   -0.9129   -1.4228 H   0  0  0  0  0  0  0  0  0  0  0  0
    4.5286   -0.8112   -2.0711 H   0  0  0  0  0  0  0  0  0  0  0  0
    6.1089    0.5724   -0.7515 H   0  0  0  0  0  0  0  0  0  0  0  0
    5.2844    1.8551    1.2096 H   0  0  0  0  0  0  0  0  0  0  0  0
    2.8925    1.7600    1.8338 H   0  0  0  0  0  0  0  0  0  0  0  0
   -1.9098   -1.0653    2.3016 H   0  0  0  0  0  0  0  0  0  0  0  0
   -2.0089    1.3517    0.8455 H   0  0  0  0  0  0  0  0  0  0  0  0
   -3.7266   -1.6971    0.7208 H   0  0  0  0  0  0  0  0  0  0  0  0
   -3.8913    0.7256    1.9610 H   0  0  0  0  0  0  0  0  0  0  0  0
   -3.8985   -0.6107   -1.4203 H   0  0  0  0  0  0  0  0  0  0  0  0
   -4.0951    1.4516   -0.2765 H   0  0  0  0  0  0  0  0  0  0  0  0
   -1.2093    0.4119   -1.3151 H   0  0  0  0  0  0  0  0  0  0  0  0
   -1.8859   -0.8847   -3.3960 H   0  0  0  0  0  0  0  0  0  0  0  0
  1 16  1  6  0  0  0
  1  2  1  0  0  0  0
  2  3  1  0  0  0  0
  2 19  1  0  0  0  0
  3 21  1  0  0  0  0
  4  3  1  0  0  0  0
  4  9  2  0  0  0  0
  5  4  1  0  0  0  0
  6  5  2  0  0  0  0
  6  7  1  0  0  0  0
  7  8  2  0  0  0  0
  8  9  1  0  0  0  0
  8 25  1  0  0  0  0
  9 26  1  0  0  0  0
 10  1  1  6  0  0  0
 10 11  1  0  0  0  0
 10 27  1  0  0  0  0
 12 14  1  6  0  0  0
 12 10  1  0  0  0  0
 12 13  1  0  0  0  0
 13 30  1  0  0  0  0
 14 16  1  6  0  0  0
 15 14  1  0  0  0  0
 15 32  1  0  0  0  0
 16 33  1  6  0  0  0
 17 16  1  0  0  0  0
 18  1  1  0  0  0  0
 20  3  1  0  0  0  0
 22  5  1  0  0  0  0
 23  6  1  0  0  0  0
 24  7  1  0  0  0  0
 28 11  1  0  0  0  0
 29 12  1  0  0  0  0
 31 14  1  0  0  0  0
 34 17  1  0  0  0  0
M  END
