omegapdb_2f7p_06.xyz
 OpenBabel12161914463D

 34 35  0  0  1  0  0  0  0  0999 V2000
   -0.7401    0.1417    0.2929 C   0  0  1  0  0  0  0  0  0  0  0  0
   -0.0255    0.6989    1.4237 N   0  0  0  0  0  0  0  0  0  0  0  0
    1.2223    0.0010    1.7359 C   0  0  0  0  0  0  0  0  0  0  0  0
    2.2643    0.1440    0.6477 C   0  0  0  0  0  0  0  0  0  0  0  0
    2.8868   -0.9708    0.0867 C   0  0  0  0  0  0  0  0  0  0  0  0
    3.8532   -0.8242   -0.9059 C   0  0  0  0  0  0  0  0  0  0  0  0
    4.2065    0.4459   -1.3485 C   0  0  0  0  0  0  0  0  0  0  0  0
    3.5904    1.5644   -0.7944 C   0  0  0  0  0  0  0  0  0  0  0  0
    2.6232    1.4140    0.1936 C   0  0  0  0  0  0  0  0  0  0  0  0
   -1.2893   -1.2878    0.4804 C   0  0  1  0  0  0  0  0  0  0  0  0
   -1.7931   -1.3900    1.7948 O   0  0  0  0  0  0  0  0  0  0  0  0
   -2.4533   -1.4169   -0.5462 C   0  0  1  0  0  0  0  0  0  0  0  0
   -3.5571   -2.0415    0.0724 O   0  0  0  0  0  0  0  0  0  0  0  0
   -2.7618    0.0358   -1.0058 C   0  0  1  0  0  0  0  0  0  0  0  0
   -4.1605    0.2246   -1.0120 O   0  0  0  0  0  0  0  0  0  0  0  0
   -2.0205    0.9190   -0.0016 C   0  0  2  0  0  0  0  0  0  0  0  0
   -1.7770    2.6007   -0.6233 S   0  0  0  0  0  0  0  0  0  0  0  0
   -0.0775    0.1641   -0.5845 H   0  0  0  0  0  0  0  0  0  0  0  0
   -0.6331    0.6005    2.2355 H   0  0  0  0  0  0  0  0  0  0  0  0
    1.0641   -1.0692    1.9547 H   0  0  0  0  0  0  0  0  0  0  0  0
    1.6097    0.4527    2.6590 H   0  0  0  0  0  0  0  0  0  0  0  0
    2.6161   -1.9672    0.4315 H   0  0  0  0  0  0  0  0  0  0  0  0
    4.3306   -1.7041   -1.3311 H   0  0  0  0  0  0  0  0  0  0  0  0
    4.9596    0.5673   -2.1235 H   0  0  0  0  0  0  0  0  0  0  0  0
    3.8618    2.5605   -1.1353 H   0  0  0  0  0  0  0  0  0  0  0  0
    2.1408    2.2865    0.6285 H   0  0  0  0  0  0  0  0  0  0  0  0
   -0.5185   -2.0546    0.3016 H   0  0  0  0  0  0  0  0  0  0  0  0
   -2.6374   -1.8679    1.6999 H   0  0  0  0  0  0  0  0  0  0  0  0
   -2.1369   -2.0216   -1.4036 H   0  0  0  0  0  0  0  0  0  0  0  0
   -4.3266   -1.4723   -0.0998 H   0  0  0  0  0  0  0  0  0  0  0  0
   -2.3458    0.1836   -2.0119 H   0  0  0  0  0  0  0  0  0  0  0  0
   -4.3488    1.1347   -1.2815 H   0  0  0  0  0  0  0  0  0  0  0  0
   -2.6131    0.9524    0.9185 H   0  0  0  0  0  0  0  0  0  0  0  0
   -1.0133    2.9957    0.4073 H   0  0  0  0  0  0  0  0  0  0  0  0
  1 16  1  6  0  0  0
  1 10  1  0  0  0  0
  1  2  1  0  0  0  0
  2  3  1  0  0  0  0
  2 19  1  0  0  0  0
  3 20  1  0  0  0  0
  3 21  1  0  0  0  0
  4  3  1  0  0  0  0
  5 22  1  0  0  0  0
  5  4  2  0  0  0  0
  6  5  1  0  0  0  0
  7  6  2  0  0  0  0
  7  8  1  0  0  0  0
  8  9  2  0  0  0  0
  9 26  1  0  0  0  0
  9  4  1  0  0  0  0
 10 12  1  6  0  0  0
 10 11  1  0  0  0  0
 12 14  1  6  0  0  0
 12 13  1  0  0  0  0
 14 16  1  1  0  0  0
 15 14  1  0  0  0  0
 16 33  1  1  0  0  0
 17 16  1  0  0  0  0
 17 34  1  0  0  0  0
 18  1  1  0  0  0  0
 23  6  1  0  0  0  0
 24  7  1  0  0  0  0
 25  8  1  0  0  0  0
 27 10  1  0  0  0  0
 28 11  1  0  0  0  0
 29 12  1  0  0  0  0
 30 13  1  0  0  0  0
 31 14  1  0  0  0  0
 32 15  1  0  0  0  0
M  END
