omegapdb_1qxw_25.xyz
 OpenBabel12161914463D

 36 36  0  0  1  0  0  0  0  0999 V2000
    4.5899    0.6248   -1.1081 C   0  0  0  0  0  0  0  0  0  0  0  0
    4.3682    1.1633    0.2778 C   0  0  0  0  0  0  0  0  0  0  0  0
    3.9131   -0.2201   -0.0741 C   0  0  0  0  0  0  0  0  0  0  0  0
    2.5004   -0.4010   -0.2385 N   0  0  0  0  0  0  0  0  0  0  0  0
    1.7752   -0.5118    1.0129 C   0  0  0  0  0  0  0  0  0  0  0  0
    0.2663   -0.6622    0.7849 C   0  0  0  0  0  0  0  0  0  0  0  0
   -0.3614    0.5498    0.0697 C   0  0  1  0  0  0  0  0  0  0  0  0
   -0.0236    0.6567   -1.3439 N   0  0  0  0  0  0  0  0  0  0  0  0
   -1.8845    0.6252    0.2571 C   0  0  0  0  0  0  0  0  0  0  0  0
   -2.6822   -0.5286   -0.3522 C   0  0  0  0  0  0  0  0  0  0  0  0
   -4.1971   -0.4087   -0.1473 C   0  0  0  0  0  0  0  0  0  0  0  0
   -4.8463    0.7456   -0.9092 C   0  0  0  0  0  0  0  0  0  0  0  0
    0.0565   -1.8190   -0.0225 O   0  0  0  0  0  0  0  0  0  0  0  0
   -0.3722   -0.8000    2.0400 O   0  0  0  0  0  0  0  0  0  0  0  0
    5.5950    0.3682   -1.4269 H   0  0  0  0  0  0  0  0  0  0  0  0
    3.9385    1.0124   -1.8857 H   0  0  0  0  0  0  0  0  0  0  0  0
    5.2211    1.2796    0.9393 H   0  0  0  0  0  0  0  0  0  0  0  0
    3.5803    1.9011    0.3982 H   0  0  0  0  0  0  0  0  0  0  0  0
    4.4835   -1.0525    0.3466 H   0  0  0  0  0  0  0  0  0  0  0  0
    2.3166   -1.2216   -0.8095 H   0  0  0  0  0  0  0  0  0  0  0  0
    2.0990   -1.3773    1.6171 H   0  0  0  0  0  0  0  0  0  0  0  0
    1.9670    0.3878    1.6059 H   0  0  0  0  0  0  0  0  0  0  0  0
    0.0440    1.4459    0.5601 H   0  0  0  0  0  0  0  0  0  0  0  0
    0.9758    0.8332   -1.4258 H   0  0  0  0  0  0  0  0  0  0  0  0
   -0.1815   -0.2466   -1.7824 H   0  0  0  0  0  0  0  0  0  0  0  0
   -2.1101    0.7078    1.3264 H   0  0  0  0  0  0  0  0  0  0  0  0
   -2.1955    1.5656   -0.2159 H   0  0  0  0  0  0  0  0  0  0  0  0
   -2.3387   -1.4750    0.0789 H   0  0  0  0  0  0  0  0  0  0  0  0
   -2.4724   -0.5841   -1.4308 H   0  0  0  0  0  0  0  0  0  0  0  0
   -4.4152   -0.3135    0.9257 H   0  0  0  0  0  0  0  0  0  0  0  0
   -4.6638   -1.3494   -0.4660 H   0  0  0  0  0  0  0  0  0  0  0  0
   -5.9336    0.7443   -0.7766 H   0  0  0  0  0  0  0  0  0  0  0  0
   -4.4766    1.7195   -0.5707 H   0  0  0  0  0  0  0  0  0  0  0  0
   -4.6428    0.6684   -1.9835 H   0  0  0  0  0  0  0  0  0  0  0  0
   -0.0097   -2.5719    0.5806 H   0  0  0  0  0  0  0  0  0  0  0  0
    0.1163   -1.4560    2.5553 H   0  0  0  0  0  0  0  0  0  0  0  0
  1  3  1  0  0  0  0
  1  2  1  0  0  0  0
  2 18  1  0  0  0  0
  2 17  1  0  0  0  0
  3  2  1  0  0  0  0
  3 19  1  0  0  0  0
  4  3  1  0  0  0  0
  4  5  1  0  0  0  0
  5 22  1  0  0  0  0
  5 21  1  0  0  0  0
  6  5  1  0  0  0  0
  6 14  1  0  0  0  0
  7  9  1  0  0  0  0
  7 23  1  1  0  0  0
  7  6  1  0  0  0  0
  8  7  1  0  0  0  0
  9 26  1  0  0  0  0
 10 11  1  0  0  0  0
 10 28  1  0  0  0  0
 10  9  1  0  0  0  0
 11 30  1  0  0  0  0
 12 32  1  0  0  0  0
 12 33  1  0  0  0  0
 12 11  1  0  0  0  0
 13 35  1  0  0  0  0
 13  6  1  0  0  0  0
 14 36  1  0  0  0  0
 15  1  1  0  0  0  0
 16  1  1  0  0  0  0
 20  4  1  0  0  0  0
 24  8  1  0  0  0  0
 25  8  1  0  0  0  0
 27  9  1  0  0  0  0
 29 10  1  0  0  0  0
 31 11  1  0  0  0  0
 34 12  1  0  0  0  0
M  END
