omegapdb_1m5f_14.xyz
 OpenBabel12161914463D

 25 25  0  0  1  0  0  0  0  0999 V2000
    0.0747   -2.8140   -0.3684 O   0  0  0  0  0  0  0  0  0  0  0  0
   -1.2730   -2.7561   -0.2663 C   0  0  0  0  0  0  0  0  0  0  0  0
   -1.9761   -3.7277   -0.3337 O   0  0  0  0  0  0  0  0  0  0  0  0
   -1.7322   -1.3577   -0.0534 C   0  0  0  0  0  0  0  0  0  0  0  0
   -2.9305   -1.1635    0.4370 N   0  0  0  0  0  0  0  0  0  0  0  0
   -3.0593    0.1902    0.5634 O   0  0  0  0  0  0  0  0  0  0  0  0
   -1.9408    0.8035    0.1415 C   0  0  0  0  0  0  0  0  0  0  0  0
   -1.0376   -0.1277   -0.2840 C   0  0  0  0  0  0  0  0  0  0  0  0
    0.3420    0.1325   -0.8071 C   0  0  0  0  0  0  0  0  0  0  0  0
    1.3916    0.1334    0.3179 C   0  0  2  0  0  0  0  0  0  0  0  0
    1.0748    1.1324    1.3285 N   0  0  0  0  0  0  0  0  0  0  0  0
    2.7869    0.4149   -0.2133 C   0  0  0  0  0  0  0  0  0  0  0  0
    3.5797    1.1666    0.3046 O   0  0  0  0  0  0  0  0  0  0  0  0
    3.0827   -0.2903   -1.3198 O   0  0  0  0  0  0  0  0  0  0  0  0
   -1.8956    2.2893    0.2215 C   0  0  0  0  0  0  0  0  0  0  0  0
    0.2944   -3.7508   -0.5031 H   0  0  0  0  0  0  0  0  0  0  0  0
    0.6100   -0.6174   -1.5514 H   0  0  0  0  0  0  0  0  0  0  0  0
    0.3658    1.1128   -1.3024 H   0  0  0  0  0  0  0  0  0  0  0  0
    1.4194   -0.8903    0.7222 H   0  0  0  0  0  0  0  0  0  0  0  0
    1.9360    1.4710    1.7484 H   0  0  0  0  0  0  0  0  0  0  0  0
    0.5165    0.7054    2.0592 H   0  0  0  0  0  0  0  0  0  0  0  0
    3.9956   -0.0541   -1.5554 H   0  0  0  0  0  0  0  0  0  0  0  0
   -0.9148    2.5931    0.5990 H   0  0  0  0  0  0  0  0  0  0  0  0
   -2.6803    2.6609    0.8822 H   0  0  0  0  0  0  0  0  0  0  0  0
   -2.0298    2.7436   -0.7671 H   0  0  0  0  0  0  0  0  0  0  0  0
  1  2  1  0  0  0  0
  2  4  1  0  0  0  0
  3  2  2  0  0  0  0
  4  5  2  0  0  0  0
  5  6  1  0  0  0  0
  7 15  1  0  0  0  0
  7  6  1  0  0  0  0
  8  4  1  0  0  0  0
  8  7  2  0  0  0  0
  9  8  1  0  0  0  0
  9 10  1  0  0  0  0
 10 19  1  1  0  0  0
 10 11  1  0  0  0  0
 11 20  1  0  0  0  0
 11 21  1  0  0  0  0
 12 13  2  0  0  0  0
 12 10  1  0  0  0  0
 14 12  1  0  0  0  0
 15 23  1  0  0  0  0
 15 24  1  0  0  0  0
 16  1  1  0  0  0  0
 17  9  1  0  0  0  0
 18  9  1  0  0  0  0
 22 14  1  0  0  0  0
 25 15  1  0  0  0  0
M  END
