omegapdb_1z1r_24.xyz
 OpenBabel12161914463D

 66 68  0  0  1  0  0  0  0  0999 V2000
    0.5081    1.2968    0.4293 C   0  0  2  0  0  0  0  0  0  0  0  0
    1.0749    0.7145   -0.8838 C   0  0  0  0  0  0  0  0  0  0  0  0
    0.4598   -0.6304   -1.2060 C   0  0  0  0  0  0  0  0  0  0  0  0
   -0.5215   -0.7658   -2.1908 C   0  0  0  0  0  0  0  0  0  0  0  0
   -1.2456   -1.9437   -2.3326 C   0  0  0  0  0  0  0  0  0  0  0  0
   -0.9987   -3.0084   -1.4665 C   0  0  0  0  0  0  0  0  0  0  0  0
    0.0576   -2.9337   -0.5588 C   0  0  0  0  0  0  0  0  0  0  0  0
    0.7734   -1.7521   -0.4319 C   0  0  0  0  0  0  0  0  0  0  0  0
   -1.7623   -4.1434   -1.4659 O   0  0  0  0  0  0  0  0  0  0  0  0
   -3.1692   -3.9738   -1.3107 C   0  0  0  0  0  0  0  0  0  0  0  0
   -3.6041   -3.4333    0.0518 C   0  0  0  0  0  0  0  0  0  0  0  0
   -3.4873   -1.9200    0.2128 C   0  0  0  0  0  0  0  0  0  0  0  0
   -3.9316   -1.4785    1.5991 C   0  0  0  0  0  0  0  0  0  0  0  0
   -4.2800   -2.2676    2.4580 O   0  0  0  0  0  0  0  0  0  0  0  0
   -3.9485   -0.1186    1.8459 N   0  0  0  0  0  0  0  0  0  0  0  0
   -3.2347    0.8693    1.0719 C   0  0  2  0  0  0  0  0  0  0  0  0
   -1.7282    0.8854    1.4018 C   0  0  0  0  0  0  0  0  0  0  0  0
   -1.3031    0.5680    2.5018 O   0  0  0  0  0  0  0  0  0  0  0  0
   -0.9377    1.2908    0.3711 N   0  0  0  0  0  0  0  0  0  0  0  0
   -3.8293    2.2673    1.3132 C   0  0  0  0  0  0  0  0  0  0  0  0
   -3.1617    3.2706    0.3835 C   0  0  0  0  0  0  0  0  0  0  0  0
   -3.0246    3.0223   -0.8085 O   0  0  0  0  0  0  0  0  0  0  0  0
   -2.7141    4.4180    0.9465 N   0  0  0  0  0  0  0  0  0  0  0  0
    1.0127    2.7151    0.7683 C   0  0  2  0  0  0  0  0  0  0  0  0
    0.4287    3.7193   -0.0520 O   0  0  0  0  0  0  0  0  0  0  0  0
    2.5357    2.8412    0.7244 C   0  0  0  0  0  0  0  0  0  0  0  0
    3.1694    1.7316    1.4369 N   0  0  0  0  0  0  0  0  0  0  0  0
    4.7894    1.4311    1.1352 S   0  0  0  0  0  0  0  0  0  0  0  0
    5.3513    1.0305    2.4154 O   0  0  0  0  0  0  0  0  0  0  0  0
    5.3382    2.5383    0.3674 O   0  0  0  0  0  0  0  0  0  0  0  0
    4.7555    0.0045    0.0810 C   0  0  0  0  0  0  0  0  0  0  0  0
    4.6286   -1.2535    0.6608 C   0  0  0  0  0  0  0  0  0  0  0  0
    4.5926   -2.3755   -0.1612 C   0  0  0  0  0  0  0  0  0  0  0  0
    4.6585   -2.2340   -1.5466 C   0  0  0  0  0  0  0  0  0  0  0  0
    4.7808   -0.9657   -2.1127 C   0  0  0  0  0  0  0  0  0  0  0  0
    4.8431    0.1611   -1.2986 C   0  0  0  0  0  0  0  0  0  0  0  0
    0.7807    0.6343    1.2580 H   0  0  0  0  0  0  0  0  0  0  0  0
    2.1609    0.6044   -0.7895 H   0  0  0  0  0  0  0  0  0  0  0  0
    0.8889    1.4229   -1.7042 H   0  0  0  0  0  0  0  0  0  0  0  0
   -0.7580    0.0780   -2.8362 H   0  0  0  0  0  0  0  0  0  0  0  0
   -2.0152   -2.0298   -3.0956 H   0  0  0  0  0  0  0  0  0  0  0  0
    0.2542   -3.7942    0.0767 H   0  0  0  0  0  0  0  0  0  0  0  0
    1.5768   -1.6870    0.3016 H   0  0  0  0  0  0  0  0  0  0  0  0
   -3.5723   -4.9787   -1.4559 H   0  0  0  0  0  0  0  0  0  0  0  0
   -3.5694   -3.3374   -2.1144 H   0  0  0  0  0  0  0  0  0  0  0  0
   -4.6557   -3.7068    0.2007 H   0  0  0  0  0  0  0  0  0  0  0  0
   -3.0427   -3.9357    0.8465 H   0  0  0  0  0  0  0  0  0  0  0  0
   -4.1063   -1.4109   -0.5401 H   0  0  0  0  0  0  0  0  0  0  0  0
   -2.4586   -1.5660    0.0634 H   0  0  0  0  0  0  0  0  0  0  0  0
   -4.0012    0.0701    2.8415 H   0  0  0  0  0  0  0  0  0  0  0  0
   -3.3658    0.6450    0.0074 H   0  0  0  0  0  0  0  0  0  0  0  0
   -1.3676    1.6972   -0.4506 H   0  0  0  0  0  0  0  0  0  0  0  0
   -4.8983    2.2228    1.0789 H   0  0  0  0  0  0  0  0  0  0  0  0
   -3.7210    2.5445    2.3694 H   0  0  0  0  0  0  0  0  0  0  0  0
   -2.6908    4.5308    1.9472 H   0  0  0  0  0  0  0  0  0  0  0  0
   -2.0728    4.9748    0.3990 H   0  0  0  0  0  0  0  0  0  0  0  0
    0.6604    2.9317    1.7836 H   0  0  0  0  0  0  0  0  0  0  0  0
    0.8521    3.6837   -0.9211 H   0  0  0  0  0  0  0  0  0  0  0  0
    2.8723    2.8197   -0.3168 H   0  0  0  0  0  0  0  0  0  0  0  0
    2.8377    3.8093    1.1411 H   0  0  0  0  0  0  0  0  0  0  0  0
    3.0292    1.7261    2.4447 H   0  0  0  0  0  0  0  0  0  0  0  0
    4.5799   -1.3469    1.7413 H   0  0  0  0  0  0  0  0  0  0  0  0
    4.5138   -3.3665    0.2797 H   0  0  0  0  0  0  0  0  0  0  0  0
    4.6223   -3.1133   -2.1857 H   0  0  0  0  0  0  0  0  0  0  0  0
    4.8392   -0.8558   -3.1919 H   0  0  0  0  0  0  0  0  0  0  0  0
    4.9512    1.1558   -1.7231 H   0  0  0  0  0  0  0  0  0  0  0  0
  1 24  1  0  0  0  0
  1 37  1  1  0  0  0
  2 38  1  0  0  0  0
  2  1  1  0  0  0  0
  3  2  1  0  0  0  0
  3  8  2  0  0  0  0
  4  3  1  0  0  0  0
  5  4  2  0  0  0  0
  5  6  1  0  0  0  0
  6  9  1  0  0  0  0
  6  7  2  0  0  0  0
  7  8  1  0  0  0  0
  7 42  1  0  0  0  0
  8 43  1  0  0  0  0
  9 10  1  0  0  0  0
 10 11  1  0  0  0  0
 11 46  1  0  0  0  0
 11 12  1  0  0  0  0
 11 47  1  0  0  0  0
 12 13  1  0  0  0  0
 13 15  1  0  0  0  0
 13 14  2  0  0  0  0
 15 50  1  0  0  0  0
 16 51  1  6  0  0  0
 16 20  1  0  0  0  0
 16 17  1  0  0  0  0
 16 15  1  0  0  0  0
 17 18  2  0  0  0  0
 19  1  1  0  0  0  0
 19 17  1  0  0  0  0
 20 54  1  0  0  0  0
 21 23  1  0  0  0  0
 21 20  1  0  0  0  0
 22 21  2  0  0  0  0
 23 55  1  0  0  0  0
 24 57  1  1  0  0  0
 25 24  1  0  0  0  0
 26 24  1  0  0  0  0
 26 60  1  0  0  0  0
 26 27  1  0  0  0  0
 27 61  1  0  0  0  0
 28 27  1  0  0  0  0
 28 29  2  0  0  0  0
 30 28  2  0  0  0  0
 31 32  1  0  0  0  0
 31 28  1  0  0  0  0
 32 62  1  0  0  0  0
 33 63  1  0  0  0  0
 33 32  2  0  0  0  0
 34 33  1  0  0  0  0
 35 34  2  0  0  0  0
 35 36  1  0  0  0  0
 36 31  2  0  0  0  0
 39  2  1  0  0  0  0
 40  4  1  0  0  0  0
 41  5  1  0  0  0  0
 44 10  1  0  0  0  0
 45 10  1  0  0  0  0
 48 12  1  0  0  0  0
 49 12  1  0  0  0  0
 52 19  1  0  0  0  0
 53 20  1  0  0  0  0
 56 23  1  0  0  0  0
 58 25  1  0  0  0  0
 59 26  1  0  0  0  0
 64 34  1  0  0  0  0
 65 35  1  0  0  0  0
 66 36  1  0  0  0  0
M  END
