omegapdb_1m5f_15.xyz
 OpenBabel12161914463D

 25 25  0  0  1  0  0  0  0  0999 V2000
   -0.2519   -2.5856   -1.4862 O   0  0  0  0  0  0  0  0  0  0  0  0
   -1.5460   -2.1947   -1.5466 C   0  0  0  0  0  0  0  0  0  0  0  0
   -2.3673   -2.7670   -2.2110 O   0  0  0  0  0  0  0  0  0  0  0  0
   -1.8084   -0.9929   -0.7096 C   0  0  0  0  0  0  0  0  0  0  0  0
   -2.9978   -0.4547   -0.7988 N   0  0  0  0  0  0  0  0  0  0  0  0
   -2.9789    0.6211    0.0413 O   0  0  0  0  0  0  0  0  0  0  0  0
   -1.7798    0.7216    0.6384 C   0  0  0  0  0  0  0  0  0  0  0  0
   -0.9625   -0.2842    0.2018 C   0  0  0  0  0  0  0  0  0  0  0  0
    0.4813   -0.4567    0.5606 C   0  0  0  0  0  0  0  0  0  0  0  0
    1.3662    0.6177   -0.1194 C   0  0  2  0  0  0  0  0  0  0  0  0
    1.3721    0.5849   -1.5673 N   0  0  0  0  0  0  0  0  0  0  0  0
    2.7880    0.4784    0.3815 C   0  0  0  0  0  0  0  0  0  0  0  0
    3.7019   -0.0044   -0.2411 O   0  0  0  0  0  0  0  0  0  0  0  0
    2.9188    0.9094    1.6524 O   0  0  0  0  0  0  0  0  0  0  0  0
   -1.6089    1.8639    1.5776 C   0  0  0  0  0  0  0  0  0  0  0  0
   -0.1839   -3.3653   -2.0623 H   0  0  0  0  0  0  0  0  0  0  0  0
    0.8171   -1.4540    0.2711 H   0  0  0  0  0  0  0  0  0  0  0  0
    0.6102   -0.3673    1.6456 H   0  0  0  0  0  0  0  0  0  0  0  0
    1.0077    1.6012    0.2066 H   0  0  0  0  0  0  0  0  0  0  0  0
    1.8648   -0.2467   -1.8814 H   0  0  0  0  0  0  0  0  0  0  0  0
    0.4158    0.5233   -1.9063 H   0  0  0  0  0  0  0  0  0  0  0  0
    3.8461    0.7505    1.8944 H   0  0  0  0  0  0  0  0  0  0  0  0
   -0.7123    1.7389    2.1896 H   0  0  0  0  0  0  0  0  0  0  0  0
   -2.4735    1.9539    2.2398 H   0  0  0  0  0  0  0  0  0  0  0  0
   -1.5186    2.8087    1.0291 H   0  0  0  0  0  0  0  0  0  0  0  0
  2  1  1  0  0  0  0
  2  4  1  0  0  0  0
  3  2  2  0  0  0  0
  4  8  1  0  0  0  0
  5  4  2  0  0  0  0
  5  6  1  0  0  0  0
  6  7  1  0  0  0  0
  7 15  1  0  0  0  0
  8  9  1  0  0  0  0
  8  7  2  0  0  0  0
  9 18  1  0  0  0  0
 10 19  1  1  0  0  0
 10 12  1  0  0  0  0
 10  9  1  0  0  0  0
 11 10  1  0  0  0  0
 12 14  1  0  0  0  0
 13 12  2  0  0  0  0
 14 22  1  0  0  0  0
 15 23  1  0  0  0  0
 15 24  1  0  0  0  0
 16  1  1  0  0  0  0
 17  9  1  0  0  0  0
 20 11  1  0  0  0  0
 21 11  1  0  0  0  0
 25 15  1  0  0  0  0
M  END
