omegapdb_2f7p_22.xyz
 OpenBabel12161914463D

 34 35  0  0  1  0  0  0  0  0999 V2000
   -1.2663   -0.6349   -0.5170 C   0  0  1  0  0  0  0  0  0  0  0  0
   -0.0160   -0.0667   -0.0642 N   0  0  0  0  0  0  0  0  0  0  0  0
    1.1337   -0.9567   -0.0714 C   0  0  0  0  0  0  0  0  0  0  0  0
    2.4378   -0.1934    0.0361 C   0  0  0  0  0  0  0  0  0  0  0  0
    2.5164    1.1545   -0.3126 C   0  0  0  0  0  0  0  0  0  0  0  0
    3.7282    1.8347   -0.2446 C   0  0  0  0  0  0  0  0  0  0  0  0
    4.8817    1.1734    0.1650 C   0  0  0  0  0  0  0  0  0  0  0  0
    4.8132   -0.1730    0.5118 C   0  0  0  0  0  0  0  0  0  0  0  0
    3.5987   -0.8484    0.4501 C   0  0  0  0  0  0  0  0  0  0  0  0
   -2.0605   -1.4251    0.5760 C   0  0  1  0  0  0  0  0  0  0  0  0
   -1.2856   -2.0394    1.5784 O   0  0  0  0  0  0  0  0  0  0  0  0
   -2.9927   -0.3784    1.1699 C   0  0  1  0  0  0  0  0  0  0  0  0
   -2.2204    0.5497    1.9074 O   0  0  0  0  0  0  0  0  0  0  0  0
   -3.5201    0.3082   -0.0830 C   0  0  1  0  0  0  0  0  0  0  0  0
   -4.1522    1.5160    0.2871 O   0  0  0  0  0  0  0  0  0  0  0  0
   -2.2408    0.5075   -0.9224 C   0  0  2  0  0  0  0  0  0  0  0  0
   -2.6928    0.6284   -2.6763 S   0  0  0  0  0  0  0  0  0  0  0  0
   -1.0642   -1.2917   -1.3755 H   0  0  0  0  0  0  0  0  0  0  0  0
   -0.1573    0.3114    0.8708 H   0  0  0  0  0  0  0  0  0  0  0  0
    1.0857   -1.7150    0.7282 H   0  0  0  0  0  0  0  0  0  0  0  0
    1.1187   -1.5104   -1.0226 H   0  0  0  0  0  0  0  0  0  0  0  0
    1.6132    1.6648   -0.6338 H   0  0  0  0  0  0  0  0  0  0  0  0
    3.7694    2.8876   -0.5142 H   0  0  0  0  0  0  0  0  0  0  0  0
    5.8293    1.7042    0.2139 H   0  0  0  0  0  0  0  0  0  0  0  0
    5.7097   -0.7002    0.8301 H   0  0  0  0  0  0  0  0  0  0  0  0
    3.5576   -1.9008    0.7274 H   0  0  0  0  0  0  0  0  0  0  0  0
   -2.6810   -2.1700    0.0559 H   0  0  0  0  0  0  0  0  0  0  0  0
   -1.0164   -2.9073    1.2558 H   0  0  0  0  0  0  0  0  0  0  0  0
   -3.7859   -0.8239    1.7866 H   0  0  0  0  0  0  0  0  0  0  0  0
   -2.7378    1.3712    1.9096 H   0  0  0  0  0  0  0  0  0  0  0  0
   -4.2226   -0.3609   -0.6011 H   0  0  0  0  0  0  0  0  0  0  0  0
   -4.3935    1.9861   -0.5236 H   0  0  0  0  0  0  0  0  0  0  0  0
   -1.7884    1.4522   -0.6156 H   0  0  0  0  0  0  0  0  0  0  0  0
   -1.4988    1.0462   -3.1263 H   0  0  0  0  0  0  0  0  0  0  0  0
  1 16  1  6  0  0  0
  1  2  1  0  0  0  0
  2 19  1  0  0  0  0
  3  2  1  0  0  0  0
  3  4  1  0  0  0  0
  3 20  1  0  0  0  0
  4  9  2  0  0  0  0
  5  6  2  0  0  0  0
  5  4  1  0  0  0  0
  6  7  1  0  0  0  0
  7 24  1  0  0  0  0
  7  8  2  0  0  0  0
  8 25  1  0  0  0  0
  9  8  1  0  0  0  0
  9 26  1  0  0  0  0
 10  1  1  6  0  0  0
 10 12  1  0  0  0  0
 10 11  1  0  0  0  0
 12 14  1  6  0  0  0
 12 29  1  0  0  0  0
 12 13  1  0  0  0  0
 13 30  1  0  0  0  0
 14 16  1  6  0  0  0
 14 15  1  0  0  0  0
 16 33  1  1  0  0  0
 17 16  1  0  0  0  0
 18  1  1  0  0  0  0
 21  3  1  0  0  0  0
 22  5  1  0  0  0  0
 23  6  1  0  0  0  0
 27 10  1  0  0  0  0
 28 11  1  0  0  0  0
 31 14  1  0  0  0  0
 32 15  1  0  0  0  0
 34 17  1  0  0  0  0
M  END
