omegapdb_1qxw_15.xyz
 OpenBabel12161914463D

 36 36  0  0  1  0  0  0  0  0999 V2000
    4.9018    1.4945    0.5120 C   0  0  0  0  0  0  0  0  0  0  0  0
    4.6682    0.7314   -0.7644 C   0  0  0  0  0  0  0  0  0  0  0  0
    4.0437    0.2674    0.5261 C   0  0  0  0  0  0  0  0  0  0  0  0
    2.6331    0.3627    0.7715 N   0  0  0  0  0  0  0  0  0  0  0  0
    1.7893   -0.3244   -0.1998 C   0  0  0  0  0  0  0  0  0  0  0  0
    0.3820   -0.3726    0.3882 C   0  0  0  0  0  0  0  0  0  0  0  0
   -0.5682   -1.2197   -0.4748 C   0  0  1  0  0  0  0  0  0  0  0  0
   -0.0493   -2.5829   -0.4638 N   0  0  0  0  0  0  0  0  0  0  0  0
   -2.0297   -1.0789   -0.0059 C   0  0  0  0  0  0  0  0  0  0  0  0
   -2.7881    0.1062   -0.6109 C   0  0  0  0  0  0  0  0  0  0  0  0
   -4.2047    0.2509   -0.0554 C   0  0  0  0  0  0  0  0  0  0  0  0
   -4.9754    1.3968   -0.7073 C   0  0  0  0  0  0  0  0  0  0  0  0
   -0.0574    0.9735    0.4932 O   0  0  0  0  0  0  0  0  0  0  0  0
    0.4447   -0.9516    1.6755 O   0  0  0  0  0  0  0  0  0  0  0  0
    5.8842    1.4412    0.9725 H   0  0  0  0  0  0  0  0  0  0  0  0
    4.4159    2.4606    0.6221 H   0  0  0  0  0  0  0  0  0  0  0  0
    5.4858    0.1447   -1.1718 H   0  0  0  0  0  0  0  0  0  0  0  0
    4.0161    1.1790   -1.5114 H   0  0  0  0  0  0  0  0  0  0  0  0
    4.4896   -0.6169    0.9783 H   0  0  0  0  0  0  0  0  0  0  0  0
    2.3290    1.3289    0.8500 H   0  0  0  0  0  0  0  0  0  0  0  0
    2.1517   -1.3446   -0.3442 H   0  0  0  0  0  0  0  0  0  0  0  0
    1.7673    0.1767   -1.1790 H   0  0  0  0  0  0  0  0  0  0  0  0
   -0.4989   -0.8467   -1.5058 H   0  0  0  0  0  0  0  0  0  0  0  0
   -0.0482   -2.9249    0.4942 H   0  0  0  0  0  0  0  0  0  0  0  0
   -0.6586   -3.1904   -1.0045 H   0  0  0  0  0  0  0  0  0  0  0  0
   -2.5617   -2.0022   -0.2850 H   0  0  0  0  0  0  0  0  0  0  0  0
   -2.0580   -1.0414    1.0915 H   0  0  0  0  0  0  0  0  0  0  0  0
   -2.8415   -0.0257   -1.7019 H   0  0  0  0  0  0  0  0  0  0  0  0
   -2.2321    1.0361   -0.4495 H   0  0  0  0  0  0  0  0  0  0  0  0
   -4.1527    0.4120    1.0302 H   0  0  0  0  0  0  0  0  0  0  0  0
   -4.7511   -0.6913   -0.1994 H   0  0  0  0  0  0  0  0  0  0  0  0
   -5.9851    1.4892   -0.2937 H   0  0  0  0  0  0  0  0  0  0  0  0
   -5.0686    1.2414   -1.7887 H   0  0  0  0  0  0  0  0  0  0  0  0
   -4.4621    2.3537   -0.5545 H   0  0  0  0  0  0  0  0  0  0  0  0
   -0.6885    0.9702    1.2254 H   0  0  0  0  0  0  0  0  0  0  0  0
    1.2772   -0.6033    2.0483 H   0  0  0  0  0  0  0  0  0  0  0  0
  1  3  1  0  0  0  0
  1 16  1  0  0  0  0
  1 15  1  0  0  0  0
  2  1  1  0  0  0  0
  2  3  1  0  0  0  0
  3  4  1  0  0  0  0
  3 19  1  0  0  0  0
  4 20  1  0  0  0  0
  5  6  1  0  0  0  0
  5  4  1  0  0  0  0
  6 13  1  0  0  0  0
  6 14  1  0  0  0  0
  7 23  1  6  0  0  0
  7  8  1  0  0  0  0
  7  9  1  0  0  0  0
  7  6  1  0  0  0  0
  8 24  1  0  0  0  0
  9 27  1  0  0  0  0
 10 29  1  0  0  0  0
 10 11  1  0  0  0  0
 10  9  1  0  0  0  0
 11 30  1  0  0  0  0
 12 34  1  0  0  0  0
 12 32  1  0  0  0  0
 12 11  1  0  0  0  0
 13 35  1  0  0  0  0
 14 36  1  0  0  0  0
 17  2  1  0  0  0  0
 18  2  1  0  0  0  0
 21  5  1  0  0  0  0
 22  5  1  0  0  0  0
 25  8  1  0  0  0  0
 26  9  1  0  0  0  0
 28 10  1  0  0  0  0
 31 11  1  0  0  0  0
 33 12  1  0  0  0  0
M  END
