omegapdb_1v2k_19.xyz
 OpenBabel12161914463D

 61 65  0  0  0  0  0  0  0  0999 V2000
    8.6944   -1.5527   -1.3617 N   0  0  0  0  0  0  0  0  0  0  0  0
    7.5575   -2.0305   -1.8734 C   0  0  0  0  0  0  0  0  0  0  0  0
    6.3004   -1.4981   -1.6357 C   0  0  0  0  0  0  0  0  0  0  0  0
    6.1772   -0.3845   -0.7913 C   0  0  0  0  0  0  0  0  0  0  0  0
    7.3651    0.1232   -0.2453 C   0  0  0  0  0  0  0  0  0  0  0  0
    8.5690   -0.4903   -0.5661 C   0  0  0  0  0  0  0  0  0  0  0  0
    4.9154    0.1386   -0.5093 N   0  0  0  0  0  0  0  0  0  0  0  0
    4.7999    1.0959    0.5817 C   0  0  0  0  0  0  0  0  0  0  0  0
    3.3574    1.1879    1.0726 C   0  0  0  0  0  0  0  0  0  0  0  0
    2.4371    1.5454   -0.1004 C   0  0  0  0  0  0  0  0  0  0  0  0
    2.6022    0.5386   -1.2455 C   0  0  0  0  0  0  0  0  0  0  0  0
    4.0693    0.4725   -1.6531 C   0  0  0  0  0  0  0  0  0  0  0  0
    0.9876    1.8443    0.2813 C   0  0  0  0  0  0  0  0  0  0  0  0
    0.5322    2.9648    0.0792 O   0  0  0  0  0  0  0  0  0  0  0  0
    0.1854    0.8871    0.8431 N   0  0  0  0  0  0  0  0  0  0  0  0
   -1.1635    1.3348    1.1995 C   0  0  0  0  0  0  0  0  0  0  0  0
   -1.9818    0.1925    1.7863 C   0  0  0  0  0  0  0  0  0  0  0  0
   -1.8972   -0.9682    0.8976 N   0  0  0  0  0  0  0  0  0  0  0  0
   -0.5354   -1.4433    0.5866 C   0  0  0  0  0  0  0  0  0  0  0  0
    0.5113   -0.4922    1.1666 C   0  0  0  0  0  0  0  0  0  0  0  0
   -3.0164   -2.1831    1.1852 S   0  0  0  0  0  0  0  0  0  0  0  0
   -2.6915   -3.2749    0.2797 O   0  0  0  0  0  0  0  0  0  0  0  0
   -3.1172   -2.4284    2.6174 O   0  0  0  0  0  0  0  0  0  0  0  0
   -4.5197   -1.3945    0.6620 C   0  0  0  0  0  0  0  0  0  0  0  0
   -4.5836   -0.7781   -0.5588 C   0  0  0  0  0  0  0  0  0  0  0  0
   -5.7813   -0.1173   -0.9480 C   0  0  0  0  0  0  0  0  0  0  0  0
   -6.8902   -0.1150   -0.0645 C   0  0  0  0  0  0  0  0  0  0  0  0
   -6.7841   -0.7867    1.1855 C   0  0  0  0  0  0  0  0  0  0  0  0
   -5.6228   -1.4146    1.5458 C   0  0  0  0  0  0  0  0  0  0  0  0
   -8.0815    0.5607   -0.4441 C   0  0  0  0  0  0  0  0  0  0  0  0
   -8.1465    1.2011   -1.6501 C   0  0  0  0  0  0  0  0  0  0  0  0
   -7.0500    1.2027   -2.5465 C   0  0  0  0  0  0  0  0  0  0  0  0
   -5.8981    0.5531   -2.1933 C   0  0  0  0  0  0  0  0  0  0  0  0
   -9.5999    2.0449   -2.1115 Cl  0  0  0  0  0  0  0  0  0  0  0  0
    7.6539   -2.8971   -2.5267 H   0  0  0  0  0  0  0  0  0  0  0  0
    5.4189   -1.9618   -2.0688 H   0  0  0  0  0  0  0  0  0  0  0  0
    7.3629    0.9973    0.3966 H   0  0  0  0  0  0  0  0  0  0  0  0
    9.4948   -0.0973   -0.1454 H   0  0  0  0  0  0  0  0  0  0  0  0
    5.4407    0.7656    1.4033 H   0  0  0  0  0  0  0  0  0  0  0  0
    5.1443    2.1010    0.2701 H   0  0  0  0  0  0  0  0  0  0  0  0
    3.0766    0.2338    1.5284 H   0  0  0  0  0  0  0  0  0  0  0  0
    3.2891    1.9504    1.8582 H   0  0  0  0  0  0  0  0  0  0  0  0
    2.7735    2.5170   -0.4825 H   0  0  0  0  0  0  0  0  0  0  0  0
    1.9951    0.8364   -2.1096 H   0  0  0  0  0  0  0  0  0  0  0  0
    2.2726   -0.4626   -0.9516 H   0  0  0  0  0  0  0  0  0  0  0  0
    4.3792    1.4390   -2.0921 H   0  0  0  0  0  0  0  0  0  0  0  0
    4.2075   -0.2817   -2.4294 H   0  0  0  0  0  0  0  0  0  0  0  0
   -1.6491    1.7237    0.2982 H   0  0  0  0  0  0  0  0  0  0  0  0
   -1.0995    2.1643    1.9109 H   0  0  0  0  0  0  0  0  0  0  0  0
   -1.6511   -0.0618    2.8038 H   0  0  0  0  0  0  0  0  0  0  0  0
   -3.0284    0.5060    1.8516 H   0  0  0  0  0  0  0  0  0  0  0  0
   -0.4445   -1.5160   -0.5025 H   0  0  0  0  0  0  0  0  0  0  0  0
   -0.3874   -2.4495    0.9930 H   0  0  0  0  0  0  0  0  0  0  0  0
    0.5702   -0.6278    2.2575 H   0  0  0  0  0  0  0  0  0  0  0  0
    1.4825   -0.7599    0.7628 H   0  0  0  0  0  0  0  0  0  0  0  0
   -3.7275   -0.7739   -1.2277 H   0  0  0  0  0  0  0  0  0  0  0  0
   -7.6399   -0.7885    1.8542 H   0  0  0  0  0  0  0  0  0  0  0  0
   -5.5154   -1.9263    2.4970 H   0  0  0  0  0  0  0  0  0  0  0  0
   -8.9335    0.5694    0.2299 H   0  0  0  0  0  0  0  0  0  0  0  0
   -7.1397    1.7204   -3.4965 H   0  0  0  0  0  0  0  0  0  0  0  0
   -5.0467    0.5444   -2.8706 H   0  0  0  0  0  0  0  0  0  0  0  0
  1  6  2  0  0  0  0
  2  3  2  0  0  0  0
  2  1  1  0  0  0  0
  3  4  1  0  0  0  0
  4  7  1  0  0  0  0
  4  5  2  0  0  0  0
  5 37  1  0  0  0  0
  6  5  1  0  0  0  0
  6 38  1  0  0  0  0
  7  8  1  0  0  0  0
  8  9  1  0  0  0  0
  8 39  1  0  0  0  0
  9 41  1  0  0  0  0
  9 42  1  0  0  0  0
 10 13  1  0  0  0  0
 10  9  1  0  0  0  0
 11 45  1  0  0  0  0
 11 10  1  0  0  0  0
 12 11  1  0  0  0  0
 12  7  1  0  0  0  0
 13 15  1  0  0  0  0
 14 13  2  0  0  0  0
 15 20  1  0  0  0  0
 15 16  1  0  0  0  0
 16 17  1  0  0  0  0
 16 49  1  0  0  0  0
 17 51  1  0  0  0  0
 17 50  1  0  0  0  0
 18 21  1  0  0  0  0
 18 17  1  0  0  0  0
 19 18  1  0  0  0  0
 19 53  1  0  0  0  0
 19 20  1  0  0  0  0
 20 54  1  0  0  0  0
 21 23  2  0  0  0  0
 22 21  2  0  0  0  0
 24 21  1  0  0  0  0
 24 29  2  0  0  0  0
 25 24  1  0  0  0  0
 26 25  2  0  0  0  0
 26 27  1  0  0  0  0
 27 28  2  0  0  0  0
 28 29  1  0  0  0  0
 28 57  1  0  0  0  0
 29 58  1  0  0  0  0
 30 27  1  0  0  0  0
 30 59  1  0  0  0  0
 31 30  2  0  0  0  0
 32 33  2  0  0  0  0
 32 31  1  0  0  0  0
 33 26  1  0  0  0  0
 34 31  1  0  0  0  0
 35  2  1  0  0  0  0
 36  3  1  0  0  0  0
 40  8  1  0  0  0  0
 43 10  1  0  0  0  0
 44 11  1  0  0  0  0
 46 12  1  0  0  0  0
 47 12  1  0  0  0  0
 48 16  1  0  0  0  0
 52 19  1  0  0  0  0
 55 20  1  0  0  0  0
 56 25  1  0  0  0  0
 60 32  1  0  0  0  0
 61 33  1  0  0  0  0
M  END
