omegapdb_1xom_16.xyz
 OpenBabel12161914463D

 50 52  0  0  1  0  0  0  0  0999 V2000
    6.2525    0.2282    0.3222 O   0  0  0  0  0  0  0  0  0  0  0  0
    5.9269    0.4414   -0.9718 C   0  0  0  0  0  0  0  0  0  0  0  0
    6.7337    0.8487   -1.7719 O   0  0  0  0  0  0  0  0  0  0  0  0
    4.4661    0.1734   -1.2672 C   0  0  1  0  0  0  0  0  0  0  0  0
    3.9044   -1.0867   -0.5724 C   0  0  0  0  0  0  0  0  0  0  0  0
    3.1295   -0.7357    0.6984 C   0  0  0  0  0  0  0  0  0  0  0  0
    1.8831    0.1422    0.4065 C   0  0  2  0  0  0  0  0  0  0  0  0
    2.1722    1.0997   -0.7962 C   0  0  0  0  0  0  0  0  0  0  0  0
    3.6556    1.4359   -0.8995 C   0  0  0  0  0  0  0  0  0  0  0  0
    1.6651    0.9770    1.6185 C   0  0  0  0  0  0  0  0  0  0  0  0
    1.5186    1.6281    2.5648 N   0  0  0  0  0  0  0  0  0  0  0  0
    0.5977   -0.6652    0.1302 C   0  0  0  0  0  0  0  0  0  0  0  0
    0.5915   -2.0142   -0.1970 C   0  0  0  0  0  0  0  0  0  0  0  0
   -0.6055   -2.6719   -0.4885 C   0  0  0  0  0  0  0  0  0  0  0  0
   -1.8178   -1.9983   -0.4586 C   0  0  0  0  0  0  0  0  0  0  0  0
   -3.0268   -2.5538   -0.7146 O   0  0  0  0  0  0  0  0  0  0  0  0
   -3.0555   -3.9370   -0.9850 C   0  0  0  0  0  0  0  0  0  0  0  0
   -1.8212   -0.6224   -0.1412 C   0  0  0  0  0  0  0  0  0  0  0  0
   -0.6216    0.0165    0.1468 C   0  0  0  0  0  0  0  0  0  0  0  0
   -3.0425   -0.0220   -0.1239 O   0  0  0  0  0  0  0  0  0  0  0  0
   -3.0966    1.3951    0.0427 C   0  0  0  0  0  0  0  0  0  0  0  0
   -2.8743    1.7820    1.5220 C   0  0  0  0  0  0  0  0  0  0  0  0
   -4.2793    2.0699    2.1084 C   0  0  0  0  0  0  0  0  0  0  0  0
   -5.2637    1.5556    1.0474 C   0  0  0  0  0  0  0  0  0  0  0  0
   -4.5286    1.8161   -0.2690 C   0  0  0  0  0  0  0  0  0  0  0  0
    7.1910    0.4653    0.4022 H   0  0  0  0  0  0  0  0  0  0  0  0
    4.4139    0.0354   -2.3507 H   0  0  0  0  0  0  0  0  0  0  0  0
    4.7120   -1.7876   -0.3413 H   0  0  0  0  0  0  0  0  0  0  0  0
    3.2335   -1.5942   -1.2762 H   0  0  0  0  0  0  0  0  0  0  0  0
    3.7941   -0.1934    1.3756 H   0  0  0  0  0  0  0  0  0  0  0  0
    2.8214   -1.6371    1.2367 H   0  0  0  0  0  0  0  0  0  0  0  0
    1.5684    2.0084   -0.6999 H   0  0  0  0  0  0  0  0  0  0  0  0
    1.8494    0.6031   -1.7185 H   0  0  0  0  0  0  0  0  0  0  0  0
    4.0078    1.8404    0.0562 H   0  0  0  0  0  0  0  0  0  0  0  0
    3.8253    2.2112   -1.6533 H   0  0  0  0  0  0  0  0  0  0  0  0
    1.5115   -2.5923   -0.2284 H   0  0  0  0  0  0  0  0  0  0  0  0
   -0.5714   -3.7278   -0.7332 H   0  0  0  0  0  0  0  0  0  0  0  0
   -2.4946   -4.1790   -1.8977 H   0  0  0  0  0  0  0  0  0  0  0  0
   -2.6474   -4.5166   -0.1462 H   0  0  0  0  0  0  0  0  0  0  0  0
   -4.1055   -4.1962   -1.1269 H   0  0  0  0  0  0  0  0  0  0  0  0
   -0.6211    1.0729    0.4031 H   0  0  0  0  0  0  0  0  0  0  0  0
   -2.3703    1.8602   -0.6346 H   0  0  0  0  0  0  0  0  0  0  0  0
   -2.3870    0.9518    2.0415 H   0  0  0  0  0  0  0  0  0  0  0  0
   -2.2213    2.6577    1.5996 H   0  0  0  0  0  0  0  0  0  0  0  0
   -4.4249    1.5951    3.0829 H   0  0  0  0  0  0  0  0  0  0  0  0
   -4.4126    3.1483    2.2530 H   0  0  0  0  0  0  0  0  0  0  0  0
   -5.4160    0.4777    1.1692 H   0  0  0  0  0  0  0  0  0  0  0  0
   -6.2428    2.0415    1.0940 H   0  0  0  0  0  0  0  0  0  0  0  0
   -4.9330    1.2651   -1.1227 H   0  0  0  0  0  0  0  0  0  0  0  0
   -4.5440    2.8875   -0.5098 H   0  0  0  0  0  0  0  0  0  0  0  0
  1 26  1  0  0  0  0
  2  1  1  0  0  0  0
  3  2  2  0  0  0  0
  4 27  1  6  0  0  0
  4  2  1  0  0  0  0
  4  9  1  0  0  0  0
  4  5  1  0  0  0  0
  5 28  1  0  0  0  0
  5  6  1  0  0  0  0
  6 31  1  0  0  0  0
  6 30  1  0  0  0  0
  7  6  1  0  0  0  0
  7 10  1  1  0  0  0
  8 32  1  0  0  0  0
  8  7  1  0  0  0  0
  9  8  1  0  0  0  0
  9 34  1  0  0  0  0
 10 11  3  0  0  0  0
 12 19  1  0  0  0  0
 12  7  1  0  0  0  0
 13 12  2  0  0  0  0
 14 15  2  0  0  0  0
 14 13  1  0  0  0  0
 15 18  1  0  0  0  0
 16 15  1  0  0  0  0
 17 16  1  0  0  0  0
 17 39  1  0  0  0  0
 18 20  1  0  0  0  0
 18 19  2  0  0  0  0
 19 41  1  0  0  0  0
 20 21  1  0  0  0  0
 21 22  1  0  0  0  0
 22 44  1  0  0  0  0
 22 43  1  0  0  0  0
 22 23  1  0  0  0  0
 23 46  1  0  0  0  0
 23 45  1  0  0  0  0
 24 48  1  0  0  0  0
 24 47  1  0  0  0  0
 24 23  1  0  0  0  0
 25 21  1  0  0  0  0
 25 24  1  0  0  0  0
 29  5  1  0  0  0  0
 33  8  1  0  0  0  0
 35  9  1  0  0  0  0
 36 13  1  0  0  0  0
 37 14  1  0  0  0  0
 38 17  1  0  0  0  0
 40 17  1  0  0  0  0
 42 21  1  0  0  0  0
 49 25  1  0  0  0  0
 50 25  1  0  0  0  0
M  END
