omegapdb_1gs5_09.xyz
 OpenBabel12161914463D

 24 23  0  0  1  0  0  0  0  0999 V2000
   -0.4436   -1.1168   -0.3377 C   0  0  2  0  0  0  0  0  0  0  0  0
   -1.1067   -1.9903    0.7138 C   0  0  0  0  0  0  0  0  0  0  0  0
   -1.8957   -1.6010    1.5423 O   0  0  0  0  0  0  0  0  0  0  0  0
   -0.7151   -3.2699    0.6233 O   0  0  0  0  0  0  0  0  0  0  0  0
    1.0957   -1.1419   -0.2255 C   0  0  0  0  0  0  0  0  0  0  0  0
    1.6835   -0.4117    0.9763 C   0  0  0  0  0  0  0  0  0  0  0  0
    1.6808    1.1153    0.9991 C   0  0  0  0  0  0  0  0  0  0  0  0
    1.7280    1.7119    2.0430 O   0  0  0  0  0  0  0  0  0  0  0  0
    1.7267    1.7914   -0.1643 O   0  0  0  0  0  0  0  0  0  0  0  0
   -1.0249    0.1985   -0.2314 N   0  0  0  0  0  0  0  0  0  0  0  0
   -0.8543    1.1110   -1.2189 C   0  0  0  0  0  0  0  0  0  0  0  0
   -0.1096    0.8797   -2.1696 O   0  0  0  0  0  0  0  0  0  0  0  0
   -1.5389    2.4386   -1.0051 C   0  0  0  0  0  0  0  0  0  0  0  0
   -0.6918   -1.5422   -1.3173 H   0  0  0  0  0  0  0  0  0  0  0  0
   -1.1716   -3.7468    1.3366 H   0  0  0  0  0  0  0  0  0  0  0  0
    1.3905   -2.1931   -0.1630 H   0  0  0  0  0  0  0  0  0  0  0  0
    1.5143   -0.7550   -1.1578 H   0  0  0  0  0  0  0  0  0  0  0  0
    2.7404   -0.6935    1.0807 H   0  0  0  0  0  0  0  0  0  0  0  0
    1.2006   -0.7257    1.9084 H   0  0  0  0  0  0  0  0  0  0  0  0
    1.5098    1.2464   -0.9400 H   0  0  0  0  0  0  0  0  0  0  0  0
   -1.6451    0.3677    0.5501 H   0  0  0  0  0  0  0  0  0  0  0  0
   -1.5759    2.9791   -1.9522 H   0  0  0  0  0  0  0  0  0  0  0  0
   -0.9482    3.0242   -0.2909 H   0  0  0  0  0  0  0  0  0  0  0  0
   -2.5485    2.3236   -0.5998 H   0  0  0  0  0  0  0  0  0  0  0  0
  1 14  1  6  0  0  0
  1 10  1  0  0  0  0
  1  5  1  0  0  0  0
  1  2  1  0  0  0  0
  2  3  2  0  0  0  0
  4  2  1  0  0  0  0
  4 15  1  0  0  0  0
  5 16  1  0  0  0  0
  5  6  1  0  0  0  0
  6  7  1  0  0  0  0
  6 18  1  0  0  0  0
  6 19  1  0  0  0  0
  7  8  2  0  0  0  0
  9  7  1  0  0  0  0
 10 21  1  0  0  0  0
 11 13  1  0  0  0  0
 11 10  1  0  0  0  0
 12 11  2  0  0  0  0
 13 24  1  0  0  0  0
 13 23  1  0  0  0  0
 17  5  1  0  0  0  0
 20  9  1  0  0  0  0
 22 13  1  0  0  0  0
M  END
