omegapdb_1z1r_01.xyz
 OpenBabel12161914463D

 66 68  0  0  1  0  0  0  0  0999 V2000
    0.5599   -1.3086    0.7777 C   0  0  2  0  0  0  0  0  0  0  0  0
    0.6762   -2.3180   -0.3743 C   0  0  0  0  0  0  0  0  0  0  0  0
   -0.6763   -2.9081   -0.7135 C   0  0  0  0  0  0  0  0  0  0  0  0
   -1.2906   -3.8140    0.1569 C   0  0  0  0  0  0  0  0  0  0  0  0
   -2.6133   -4.1885   -0.0171 C   0  0  0  0  0  0  0  0  0  0  0  0
   -3.3550   -3.6439   -1.0632 C   0  0  0  0  0  0  0  0  0  0  0  0
   -2.7292   -2.8337   -2.0101 C   0  0  0  0  0  0  0  0  0  0  0  0
   -1.4009   -2.4677   -1.8233 C   0  0  0  0  0  0  0  0  0  0  0  0
   -4.6959   -3.9140   -1.1002 O   0  0  0  0  0  0  0  0  0  0  0  0
   -5.5709   -2.7899   -1.0491 C   0  0  0  0  0  0  0  0  0  0  0  0
   -5.4754   -1.9394    0.2201 C   0  0  0  0  0  0  0  0  0  0  0  0
   -4.3420   -0.9160    0.2263 C   0  0  0  0  0  0  0  0  0  0  0  0
   -4.3929   -0.0378    1.4675 C   0  0  0  0  0  0  0  0  0  0  0  0
   -5.1615   -0.2461    2.3883 O   0  0  0  0  0  0  0  0  0  0  0  0
   -3.5339    1.0446    1.5009 N   0  0  0  0  0  0  0  0  0  0  0  0
   -2.3324    1.1784    0.7074 C   0  0  2  0  0  0  0  0  0  0  0  0
   -1.1971    0.3290    1.3007 C   0  0  0  0  0  0  0  0  0  0  0  0
   -1.0764    0.2062    2.5225 O   0  0  0  0  0  0  0  0  0  0  0  0
   -0.3661   -0.2537    0.4121 N   0  0  0  0  0  0  0  0  0  0  0  0
   -1.8986    2.6473    0.6595 C   0  0  0  0  0  0  0  0  0  0  0  0
   -0.7549    2.8627   -0.3289 C   0  0  0  0  0  0  0  0  0  0  0  0
   -0.5241    2.0534   -1.2233 O   0  0  0  0  0  0  0  0  0  0  0  0
   -0.0365    3.9914   -0.1659 N   0  0  0  0  0  0  0  0  0  0  0  0
    1.9091   -0.7858    1.3254 C   0  0  2  0  0  0  0  0  0  0  0  0
    1.7086    0.1680    2.3434 O   0  0  0  0  0  0  0  0  0  0  0  0
    2.8440   -0.1562    0.2940 C   0  0  0  0  0  0  0  0  0  0  0  0
    2.3963    1.1823   -0.0706 N   0  0  0  0  0  0  0  0  0  0  0  0
    3.1507    1.9994   -1.2954 S   0  0  0  0  0  0  0  0  0  0  0  0
    2.5221    3.3108   -1.3728 O   0  0  0  0  0  0  0  0  0  0  0  0
    3.1783    1.1092   -2.4404 O   0  0  0  0  0  0  0  0  0  0  0  0
    4.8173    2.2396   -0.7502 C   0  0  0  0  0  0  0  0  0  0  0  0
    5.7594    1.2382   -0.9746 C   0  0  0  0  0  0  0  0  0  0  0  0
    7.0633    1.4198   -0.5279 C   0  0  0  0  0  0  0  0  0  0  0  0
    7.4184    2.5951    0.1303 C   0  0  0  0  0  0  0  0  0  0  0  0
    6.4673    3.5903    0.3441 C   0  0  0  0  0  0  0  0  0  0  0  0
    5.1600    3.4209   -0.1002 C   0  0  0  0  0  0  0  0  0  0  0  0
    0.0903   -1.8143    1.6325 H   0  0  0  0  0  0  0  0  0  0  0  0
    1.3759   -3.1094   -0.0790 H   0  0  0  0  0  0  0  0  0  0  0  0
    1.0932   -1.8252   -1.2635 H   0  0  0  0  0  0  0  0  0  0  0  0
   -0.7342   -4.2072    1.0059 H   0  0  0  0  0  0  0  0  0  0  0  0
   -3.1152   -4.8476    0.6865 H   0  0  0  0  0  0  0  0  0  0  0  0
   -3.2889   -2.4657   -2.8664 H   0  0  0  0  0  0  0  0  0  0  0  0
   -0.9363   -1.7863   -2.5338 H   0  0  0  0  0  0  0  0  0  0  0  0
   -5.4215   -2.1520   -1.9339 H   0  0  0  0  0  0  0  0  0  0  0  0
   -6.5674   -3.2321   -1.1263 H   0  0  0  0  0  0  0  0  0  0  0  0
   -5.4005   -2.5868    1.1003 H   0  0  0  0  0  0  0  0  0  0  0  0
   -6.4191   -1.3892    0.3220 H   0  0  0  0  0  0  0  0  0  0  0  0
   -3.3521   -1.3923    0.1982 H   0  0  0  0  0  0  0  0  0  0  0  0
   -4.4081   -0.2791   -0.6672 H   0  0  0  0  0  0  0  0  0  0  0  0
   -3.4647    1.4203    2.4411 H   0  0  0  0  0  0  0  0  0  0  0  0
   -2.5372    0.8514   -0.3168 H   0  0  0  0  0  0  0  0  0  0  0  0
   -0.3502    0.1208   -0.5313 H   0  0  0  0  0  0  0  0  0  0  0  0
   -1.6081    2.9740    1.6676 H   0  0  0  0  0  0  0  0  0  0  0  0
   -2.7620    3.2516    0.3574 H   0  0  0  0  0  0  0  0  0  0  0  0
   -0.1922    4.6045    0.6179 H   0  0  0  0  0  0  0  0  0  0  0  0
    0.8223    4.0715   -0.7003 H   0  0  0  0  0  0  0  0  0  0  0  0
    2.4293   -1.6639    1.7473 H   0  0  0  0  0  0  0  0  0  0  0  0
    0.7906    0.0964    2.6750 H   0  0  0  0  0  0  0  0  0  0  0  0
    2.9077   -0.7643   -0.6131 H   0  0  0  0  0  0  0  0  0  0  0  0
    3.8516   -0.1203    0.7320 H   0  0  0  0  0  0  0  0  0  0  0  0
    2.1129    1.7575    0.7147 H   0  0  0  0  0  0  0  0  0  0  0  0
    5.4717    0.3347   -1.5072 H   0  0  0  0  0  0  0  0  0  0  0  0
    7.8059    0.6453   -0.6968 H   0  0  0  0  0  0  0  0  0  0  0  0
    8.4405    2.7377    0.4736 H   0  0  0  0  0  0  0  0  0  0  0  0
    6.7464    4.5071    0.8555 H   0  0  0  0  0  0  0  0  0  0  0  0
    4.4120    4.1975    0.0374 H   0  0  0  0  0  0  0  0  0  0  0  0
  1 24  1  0  0  0  0
  1 37  1  1  0  0  0
  2 38  1  0  0  0  0
  2  1  1  0  0  0  0
  3  2  1  0  0  0  0
  3  4  2  0  0  0  0
  4 40  1  0  0  0  0
  5  4  1  0  0  0  0
  5 41  1  0  0  0  0
  6  5  2  0  0  0  0
  7  8  2  0  0  0  0
  7  6  1  0  0  0  0
  8  3  1  0  0  0  0
  9  6  1  0  0  0  0
  9 10  1  0  0  0  0
 10 11  1  0  0  0  0
 11 12  1  0  0  0  0
 11 47  1  0  0  0  0
 11 46  1  0  0  0  0
 12 13  1  0  0  0  0
 13 15  1  0  0  0  0
 13 14  2  0  0  0  0
 15 50  1  0  0  0  0
 16 51  1  6  0  0  0
 16 17  1  0  0  0  0
 16 15  1  0  0  0  0
 17 18  2  0  0  0  0
 19  1  1  0  0  0  0
 19 17  1  0  0  0  0
 20 16  1  0  0  0  0
 20 53  1  0  0  0  0
 21 23  1  0  0  0  0
 21 20  1  0  0  0  0
 22 21  2  0  0  0  0
 23 55  1  0  0  0  0
 24 57  1  1  0  0  0
 24 25  1  0  0  0  0
 25 58  1  0  0  0  0
 26 60  1  0  0  0  0
 26 24  1  0  0  0  0
 27 26  1  0  0  0  0
 27 61  1  0  0  0  0
 28 31  1  0  0  0  0
 28 27  1  0  0  0  0
 29 28  2  0  0  0  0
 30 28  2  0  0  0  0
 31 36  1  0  0  0  0
 32 31  2  0  0  0  0
 32 33  1  0  0  0  0
 33 34  2  0  0  0  0
 34 35  1  0  0  0  0
 34 64  1  0  0  0  0
 35 65  1  0  0  0  0
 36 66  1  0  0  0  0
 36 35  2  0  0  0  0
 39  2  1  0  0  0  0
 42  7  1  0  0  0  0
 43  8  1  0  0  0  0
 44 10  1  0  0  0  0
 45 10  1  0  0  0  0
 48 12  1  0  0  0  0
 49 12  1  0  0  0  0
 52 19  1  0  0  0  0
 54 20  1  0  0  0  0
 56 23  1  0  0  0  0
 59 26  1  0  0  0  0
 62 32  1  0  0  0  0
 63 33  1  0  0  0  0
M  END
