omegapdb_1v2k_03.xyz
 OpenBabel12161914463D

 61 65  0  0  0  0  0  0  0  0999 V2000
    8.4106   -1.1599   -2.7736 N   0  0  0  0  0  0  0  0  0  0  0  0
    7.9607    0.0930   -2.6785 C   0  0  0  0  0  0  0  0  0  0  0  0
    6.8824    0.4942   -1.9049 C   0  0  0  0  0  0  0  0  0  0  0  0
    6.1944   -0.4670   -1.1427 C   0  0  0  0  0  0  0  0  0  0  0  0
    6.6615   -1.7906   -1.2347 C   0  0  0  0  0  0  0  0  0  0  0  0
    7.7476   -2.0654   -2.0515 C   0  0  0  0  0  0  0  0  0  0  0  0
    5.1285   -0.1307   -0.3506 N   0  0  0  0  0  0  0  0  0  0  0  0
    4.6756   -1.0113    0.7121 C   0  0  0  0  0  0  0  0  0  0  0  0
    4.0261   -0.2064    1.8363 C   0  0  0  0  0  0  0  0  0  0  0  0
    2.7843    0.5574    1.3476 C   0  0  0  0  0  0  0  0  0  0  0  0
    2.9219    0.9177   -0.1496 C   0  0  0  0  0  0  0  0  0  0  0  0
    4.3800    1.0956   -0.5695 C   0  0  0  0  0  0  0  0  0  0  0  0
    1.5275   -0.2952    1.5485 C   0  0  0  0  0  0  0  0  0  0  0  0
    1.6064   -1.5129    1.6303 O   0  0  0  0  0  0  0  0  0  0  0  0
    0.3142    0.3435    1.6107 N   0  0  0  0  0  0  0  0  0  0  0  0
   -0.9009   -0.4627    1.7222 C   0  0  0  0  0  0  0  0  0  0  0  0
   -1.7191   -0.3343    0.4351 C   0  0  0  0  0  0  0  0  0  0  0  0
   -1.9956    1.0638    0.0857 N   0  0  0  0  0  0  0  0  0  0  0  0
   -0.7700    1.8732    0.0284 C   0  0  0  0  0  0  0  0  0  0  0  0
    0.0518    1.7476    1.3164 C   0  0  0  0  0  0  0  0  0  0  0  0
   -3.2671    1.8150    0.9071 S   0  0  0  0  0  0  0  0  0  0  0  0
   -3.0582    1.7463    2.3504 O   0  0  0  0  0  0  0  0  0  0  0  0
   -3.4536    3.1079    0.2659 O   0  0  0  0  0  0  0  0  0  0  0  0
   -4.6377    0.7655    0.5089 C   0  0  0  0  0  0  0  0  0  0  0  0
   -5.0571    0.6911   -0.7914 C   0  0  0  0  0  0  0  0  0  0  0  0
   -6.1607   -0.1412   -1.1250 C   0  0  0  0  0  0  0  0  0  0  0  0
   -6.8172   -0.8702   -0.1008 C   0  0  0  0  0  0  0  0  0  0  0  0
   -6.3445   -0.7624    1.2379 C   0  0  0  0  0  0  0  0  0  0  0  0
   -5.2775    0.0404    1.5415 C   0  0  0  0  0  0  0  0  0  0  0  0
   -7.9317   -1.6879   -0.4332 C   0  0  0  0  0  0  0  0  0  0  0  0
   -8.3552   -1.7642   -1.7310 C   0  0  0  0  0  0  0  0  0  0  0  0
   -7.7051   -1.0481   -2.7660 C   0  0  0  0  0  0  0  0  0  0  0  0
   -6.6312   -0.2572   -2.4589 C   0  0  0  0  0  0  0  0  0  0  0  0
   -9.7261   -2.7584   -2.1419 Cl  0  0  0  0  0  0  0  0  0  0  0  0
    8.4963    0.8363   -3.2686 H   0  0  0  0  0  0  0  0  0  0  0  0
    6.5983    1.5417   -1.8773 H   0  0  0  0  0  0  0  0  0  0  0  0
    6.1745   -2.5986   -0.6975 H   0  0  0  0  0  0  0  0  0  0  0  0
    8.1129   -3.0899   -2.1224 H   0  0  0  0  0  0  0  0  0  0  0  0
    3.9670   -1.7622    0.3325 H   0  0  0  0  0  0  0  0  0  0  0  0
    5.5411   -1.5504    1.1107 H   0  0  0  0  0  0  0  0  0  0  0  0
    3.7537   -0.8822    2.6515 H   0  0  0  0  0  0  0  0  0  0  0  0
    4.7623    0.5028    2.2338 H   0  0  0  0  0  0  0  0  0  0  0  0
    2.6970    1.4726    1.9440 H   0  0  0  0  0  0  0  0  0  0  0  0
    2.4781    0.1165   -0.7538 H   0  0  0  0  0  0  0  0  0  0  0  0
    2.3722    1.8347   -0.3844 H   0  0  0  0  0  0  0  0  0  0  0  0
    4.8344    1.9361   -0.0209 H   0  0  0  0  0  0  0  0  0  0  0  0
    4.4205    1.3451   -1.6345 H   0  0  0  0  0  0  0  0  0  0  0  0
   -1.4965   -0.0877    2.5616 H   0  0  0  0  0  0  0  0  0  0  0  0
   -0.6073   -1.4964    1.9072 H   0  0  0  0  0  0  0  0  0  0  0  0
   -1.1553   -0.7549   -0.4062 H   0  0  0  0  0  0  0  0  0  0  0  0
   -2.6625   -0.8865    0.5054 H   0  0  0  0  0  0  0  0  0  0  0  0
   -0.1922    1.5069   -0.8295 H   0  0  0  0  0  0  0  0  0  0  0  0
   -1.0540    2.9105   -0.1673 H   0  0  0  0  0  0  0  0  0  0  0  0
   -0.5374    2.1655    2.1413 H   0  0  0  0  0  0  0  0  0  0  0  0
    0.9788    2.3160    1.2467 H   0  0  0  0  0  0  0  0  0  0  0  0
   -4.5630    1.2707   -1.5664 H   0  0  0  0  0  0  0  0  0  0  0  0
   -6.8475   -1.3264    2.0181 H   0  0  0  0  0  0  0  0  0  0  0  0
   -4.9065    0.1380    2.5574 H   0  0  0  0  0  0  0  0  0  0  0  0
   -8.4414   -2.2454    0.3480 H   0  0  0  0  0  0  0  0  0  0  0  0
   -8.0682   -1.1389   -3.7849 H   0  0  0  0  0  0  0  0  0  0  0  0
   -6.1209    0.3000   -3.2424 H   0  0  0  0  0  0  0  0  0  0  0  0
  1  2  2  0  0  0  0
  1  6  1  0  0  0  0
  2  3  1  0  0  0  0
  3 36  1  0  0  0  0
  3  4  2  0  0  0  0
  4  7  1  0  0  0  0
  5  4  1  0  0  0  0
  5 37  1  0  0  0  0
  6  5  2  0  0  0  0
  7  8  1  0  0  0  0
  8 40  1  0  0  0  0
  8  9  1  0  0  0  0
  9 42  1  0  0  0  0
  9 41  1  0  0  0  0
 10 13  1  0  0  0  0
 10  9  1  0  0  0  0
 10 43  1  0  0  0  0
 11 10  1  0  0  0  0
 12  7  1  0  0  0  0
 12 11  1  0  0  0  0
 12 46  1  0  0  0  0
 13 15  1  0  0  0  0
 13 14  2  0  0  0  0
 15 16  1  0  0  0  0
 16 49  1  0  0  0  0
 16 48  1  0  0  0  0
 17 51  1  0  0  0  0
 17 16  1  0  0  0  0
 18 17  1  0  0  0  0
 18 21  1  0  0  0  0
 19 18  1  0  0  0  0
 19 20  1  0  0  0  0
 20 15  1  0  0  0  0
 20 54  1  0  0  0  0
 21 22  2  0  0  0  0
 23 21  2  0  0  0  0
 24 21  1  0  0  0  0
 24 29  2  0  0  0  0
 25 24  1  0  0  0  0
 26 25  2  0  0  0  0
 26 27  1  0  0  0  0
 27 28  2  0  0  0  0
 28 29  1  0  0  0  0
 28 57  1  0  0  0  0
 29 58  1  0  0  0  0
 30 27  1  0  0  0  0
 30 59  1  0  0  0  0
 31 30  2  0  0  0  0
 32 33  2  0  0  0  0
 32 31  1  0  0  0  0
 33 26  1  0  0  0  0
 34 31  1  0  0  0  0
 35  2  1  0  0  0  0
 38  6  1  0  0  0  0
 39  8  1  0  0  0  0
 44 11  1  0  0  0  0
 45 11  1  0  0  0  0
 47 12  1  0  0  0  0
 50 17  1  0  0  0  0
 52 19  1  0  0  0  0
 53 19  1  0  0  0  0
 55 20  1  0  0  0  0
 56 25  1  0  0  0  0
 60 32  1  0  0  0  0
 61 33  1  0  0  0  0
M  END
