omegapdb_1qxw_22.xyz
 OpenBabel12161914463D

 36 36  0  0  1  0  0  0  0  0999 V2000
    3.9018    1.4313   -0.6206 C   0  0  0  0  0  0  0  0  0  0  0  0
    4.3214    1.6255    0.8147 C   0  0  0  0  0  0  0  0  0  0  0  0
    2.8680    1.5631    0.4677 C   0  0  0  0  0  0  0  0  0  0  0  0
    2.0770    0.4460    0.8902 N   0  0  0  0  0  0  0  0  0  0  0  0
    1.0325    0.1018   -0.0575 C   0  0  0  0  0  0  0  0  0  0  0  0
    0.3066   -1.1583    0.4015 C   0  0  0  0  0  0  0  0  0  0  0  0
   -0.5346   -1.7984   -0.7240 C   0  0  1  0  0  0  0  0  0  0  0  0
   -1.3444   -2.8155   -0.0445 N   0  0  0  0  0  0  0  0  0  0  0  0
   -1.4291   -0.8607   -1.5457 C   0  0  0  0  0  0  0  0  0  0  0  0
   -2.6557   -0.2323   -0.8677 C   0  0  0  0  0  0  0  0  0  0  0  0
   -2.4208    1.0634   -0.0879 C   0  0  0  0  0  0  0  0  0  0  0  0
   -3.7271    1.6857    0.4002 C   0  0  0  0  0  0  0  0  0  0  0  0
   -0.5018   -0.8746    1.5157 O   0  0  0  0  0  0  0  0  0  0  0  0
    1.2739   -2.1469    0.7647 O   0  0  0  0  0  0  0  0  0  0  0  0
    4.0291    2.2585   -1.3127 H   0  0  0  0  0  0  0  0  0  0  0  0
    4.0500    0.4464   -1.0614 H   0  0  0  0  0  0  0  0  0  0  0  0
    4.7537    0.7764    1.3392 H   0  0  0  0  0  0  0  0  0  0  0  0
    4.7459    2.5830    1.1051 H   0  0  0  0  0  0  0  0  0  0  0  0
    2.3237    2.5080    0.5027 H   0  0  0  0  0  0  0  0  0  0  0  0
    2.6591   -0.3742    1.0223 H   0  0  0  0  0  0  0  0  0  0  0  0
    0.3063    0.9176   -0.1278 H   0  0  0  0  0  0  0  0  0  0  0  0
    1.4328   -0.0665   -1.0739 H   0  0  0  0  0  0  0  0  0  0  0  0
    0.1970   -2.2418   -1.4183 H   0  0  0  0  0  0  0  0  0  0  0  0
   -0.7326   -3.5716    0.2544 H   0  0  0  0  0  0  0  0  0  0  0  0
   -2.0303   -3.2139   -0.6790 H   0  0  0  0  0  0  0  0  0  0  0  0
   -1.7886   -1.4651   -2.3906 H   0  0  0  0  0  0  0  0  0  0  0  0
   -0.8121   -0.0772   -2.0051 H   0  0  0  0  0  0  0  0  0  0  0  0
   -3.3834   -0.0115   -1.6609 H   0  0  0  0  0  0  0  0  0  0  0  0
   -3.1323   -0.9758   -0.2151 H   0  0  0  0  0  0  0  0  0  0  0  0
   -1.8986    1.7835   -0.7360 H   0  0  0  0  0  0  0  0  0  0  0  0
   -1.7678    0.8752    0.7695 H   0  0  0  0  0  0  0  0  0  0  0  0
   -3.5476    2.6267    0.9310 H   0  0  0  0  0  0  0  0  0  0  0  0
   -4.2516    1.0101    1.0865 H   0  0  0  0  0  0  0  0  0  0  0  0
   -4.4018    1.8987   -0.4377 H   0  0  0  0  0  0  0  0  0  0  0  0
   -1.1870   -1.5754    1.4776 H   0  0  0  0  0  0  0  0  0  0  0  0
    1.2686   -2.1408    1.7306 H   0  0  0  0  0  0  0  0  0  0  0  0
  1  3  1  0  0  0  0
  1  2  1  0  0  0  0
  2 18  1  0  0  0  0
  2 17  1  0  0  0  0
  3 19  1  0  0  0  0
  3  2  1  0  0  0  0
  3  4  1  0  0  0  0
  4 20  1  0  0  0  0
  5  6  1  0  0  0  0
  5  4  1  0  0  0  0
  6 14  1  0  0  0  0
  6 13  1  0  0  0  0
  7 23  1  6  0  0  0
  7  8  1  0  0  0  0
  7  6  1  0  0  0  0
  8 24  1  0  0  0  0
  9 10  1  0  0  0  0
  9  7  1  0  0  0  0
 10 29  1  0  0  0  0
 10 11  1  0  0  0  0
 11 12  1  0  0  0  0
 11 31  1  0  0  0  0
 12 32  1  0  0  0  0
 12 33  1  0  0  0  0
 14 36  1  0  0  0  0
 15  1  1  0  0  0  0
 16  1  1  0  0  0  0
 21  5  1  0  0  0  0
 22  5  1  0  0  0  0
 25  8  1  0  0  0  0
 26  9  1  0  0  0  0
 27  9  1  0  0  0  0
 28 10  1  0  0  0  0
 30 11  1  0  0  0  0
 34 12  1  0  0  0  0
 35 13  1  0  0  0  0
M  END
