omegapdb_1xom_04.xyz
 OpenBabel12161914463D

 50 52  0  0  1  0  0  0  0  0999 V2000
    6.4803    1.1001   -1.2845 O   0  0  0  0  0  0  0  0  0  0  0  0
    6.0441    1.4279   -0.0485 C   0  0  0  0  0  0  0  0  0  0  0  0
    6.7724    1.9378    0.7692 O   0  0  0  0  0  0  0  0  0  0  0  0
    4.6054    1.0344    0.1998 C   0  0  1  0  0  0  0  0  0  0  0  0
    3.6526    1.3832   -0.9501 C   0  0  0  0  0  0  0  0  0  0  0  0
    2.2251    0.9910   -0.5703 C   0  0  0  0  0  0  0  0  0  0  0  0
    2.0898   -0.5148   -0.2395 C   0  0  2  0  0  0  0  0  0  0  0  0
    3.0995   -0.8665    0.8893 C   0  0  0  0  0  0  0  0  0  0  0  0
    4.5328   -0.4635    0.5455 C   0  0  0  0  0  0  0  0  0  0  0  0
    2.4431   -1.2966   -1.4536 C   0  0  0  0  0  0  0  0  0  0  0  0
    2.6907   -1.9231   -2.3951 N   0  0  0  0  0  0  0  0  0  0  0  0
    0.6663   -0.9359    0.1671 C   0  0  0  0  0  0  0  0  0  0  0  0
    0.3855   -2.2932    0.2854 C   0  0  0  0  0  0  0  0  0  0  0  0
   -0.8677   -2.7385    0.7043 C   0  0  0  0  0  0  0  0  0  0  0  0
   -1.8748   -1.8267    0.9948 C   0  0  0  0  0  0  0  0  0  0  0  0
   -3.1285   -2.1579    1.4009 O   0  0  0  0  0  0  0  0  0  0  0  0
   -3.4174   -3.5286    1.5735 C   0  0  0  0  0  0  0  0  0  0  0  0
   -1.6067   -0.4503    0.8641 C   0  0  0  0  0  0  0  0  0  0  0  0
   -0.3484   -0.0230    0.4638 C   0  0  0  0  0  0  0  0  0  0  0  0
   -2.5719    0.4679    1.1916 O   0  0  0  0  0  0  0  0  0  0  0  0
   -3.5788    0.6426    0.1900 C   0  0  0  0  0  0  0  0  0  0  0  0
   -4.6884    1.5388    0.7230 C   0  0  0  0  0  0  0  0  0  0  0  0
   -5.3969    2.0100   -0.5507 C   0  0  0  0  0  0  0  0  0  0  0  0
   -4.2422    2.2630   -1.5456 C   0  0  0  0  0  0  0  0  0  0  0  0
   -3.0674    1.3727   -1.0658 C   0  0  0  0  0  0  0  0  0  0  0  0
    7.4171    1.3553   -1.3052 H   0  0  0  0  0  0  0  0  0  0  0  0
    4.3039    1.5991    1.0892 H   0  0  0  0  0  0  0  0  0  0  0  0
    3.6968    2.4586   -1.1593 H   0  0  0  0  0  0  0  0  0  0  0  0
    3.9645    0.8686   -1.8653 H   0  0  0  0  0  0  0  0  0  0  0  0
    1.9371    1.5589    0.3243 H   0  0  0  0  0  0  0  0  0  0  0  0
    1.5260    1.2594   -1.3692 H   0  0  0  0  0  0  0  0  0  0  0  0
    3.0418   -1.9365    1.1180 H   0  0  0  0  0  0  0  0  0  0  0  0
    2.7748   -0.3362    1.7926 H   0  0  0  0  0  0  0  0  0  0  0  0
    5.1927   -0.6805    1.3948 H   0  0  0  0  0  0  0  0  0  0  0  0
    4.9006   -1.0533   -0.3030 H   0  0  0  0  0  0  0  0  0  0  0  0
    1.1474   -3.0330    0.0439 H   0  0  0  0  0  0  0  0  0  0  0  0
   -1.0486   -3.8033    0.7913 H   0  0  0  0  0  0  0  0  0  0  0  0
   -2.7757   -3.9798    2.3420 H   0  0  0  0  0  0  0  0  0  0  0  0
   -3.2984   -4.0839    0.6335 H   0  0  0  0  0  0  0  0  0  0  0  0
   -4.4578   -3.5794    1.8961 H   0  0  0  0  0  0  0  0  0  0  0  0
   -0.1753    1.0480    0.3936 H   0  0  0  0  0  0  0  0  0  0  0  0
   -3.9895   -0.3367   -0.0877 H   0  0  0  0  0  0  0  0  0  0  0  0
   -5.3431    1.0162    1.4291 H   0  0  0  0  0  0  0  0  0  0  0  0
   -4.2246    2.3848    1.2472 H   0  0  0  0  0  0  0  0  0  0  0  0
   -6.0524    1.2134   -0.9275 H   0  0  0  0  0  0  0  0  0  0  0  0
   -6.0213    2.8957   -0.3934 H   0  0  0  0  0  0  0  0  0  0  0  0
   -4.5393    2.0420   -2.5754 H   0  0  0  0  0  0  0  0  0  0  0  0
   -3.9406    3.3160   -1.5193 H   0  0  0  0  0  0  0  0  0  0  0  0
   -2.7303    0.6676   -1.8323 H   0  0  0  0  0  0  0  0  0  0  0  0
   -2.2043    1.9884   -0.7914 H   0  0  0  0  0  0  0  0  0  0  0  0
  1  2  1  0  0  0  0
  2  4  1  0  0  0  0
  2  3  2  0  0  0  0
  4  9  1  0  0  0  0
  4 27  1  1  0  0  0
  5  6  1  0  0  0  0
  5  4  1  0  0  0  0
  6  7  1  0  0  0  0
  6 30  1  0  0  0  0
  7 10  1  6  0  0  0
  7 12  1  0  0  0  0
  7  8  1  0  0  0  0
  8 32  1  0  0  0  0
  8 33  1  0  0  0  0
  9  8  1  0  0  0  0
  9 34  1  0  0  0  0
 11 10  3  0  0  0  0
 12 13  2  0  0  0  0
 12 19  1  0  0  0  0
 13 14  1  0  0  0  0
 14 37  1  0  0  0  0
 14 15  2  0  0  0  0
 15 16  1  0  0  0  0
 16 17  1  0  0  0  0
 17 40  1  0  0  0  0
 17 38  1  0  0  0  0
 18 15  1  0  0  0  0
 18 20  1  0  0  0  0
 19 18  2  0  0  0  0
 21 22  1  0  0  0  0
 21 20  1  0  0  0  0
 22 44  1  0  0  0  0
 22 43  1  0  0  0  0
 23 46  1  0  0  0  0
 23 22  1  0  0  0  0
 24 48  1  0  0  0  0
 24 25  1  0  0  0  0
 24 23  1  0  0  0  0
 25 50  1  0  0  0  0
 25 21  1  0  0  0  0
 26  1  1  0  0  0  0
 28  5  1  0  0  0  0
 29  5  1  0  0  0  0
 31  6  1  0  0  0  0
 35  9  1  0  0  0  0
 36 13  1  0  0  0  0
 39 17  1  0  0  0  0
 41 19  1  0  0  0  0
 42 21  1  0  0  0  0
 45 23  1  0  0  0  0
 47 24  1  0  0  0  0
 49 25  1  0  0  0  0
M  END
