omegapdb_1qxw_18.xyz
 OpenBabel12161914463D

 36 36  0  0  1  0  0  0  0  0999 V2000
    5.0551    0.1572   -0.4283 C   0  0  0  0  0  0  0  0  0  0  0  0
    4.6495   -0.0216    1.0095 C   0  0  0  0  0  0  0  0  0  0  0  0
    3.6421   -0.1981   -0.0861 C   0  0  0  0  0  0  0  0  0  0  0  0
    2.6688    0.8446   -0.2264 N   0  0  0  0  0  0  0  0  0  0  0  0
    1.6165    0.8044    0.7686 C   0  0  0  0  0  0  0  0  0  0  0  0
    0.4242   -0.1262    0.5010 C   0  0  0  0  0  0  0  0  0  0  0  0
   -0.3113    0.2122   -0.8136 C   0  0  1  0  0  0  0  0  0  0  0  0
    0.5679   -0.1260   -1.9298 N   0  0  0  0  0  0  0  0  0  0  0  0
   -1.6970   -0.4628   -0.8731 C   0  0  0  0  0  0  0  0  0  0  0  0
   -2.8345    0.3570   -0.2578 C   0  0  0  0  0  0  0  0  0  0  0  0
   -4.1510   -0.4149   -0.1815 C   0  0  0  0  0  0  0  0  0  0  0  0
   -5.2852    0.4133    0.4168 C   0  0  0  0  0  0  0  0  0  0  0  0
   -0.4149    0.0355    1.6298 O   0  0  0  0  0  0  0  0  0  0  0  0
    0.8316   -1.4865    0.4119 O   0  0  0  0  0  0  0  0  0  0  0  0
    5.6838   -0.5980   -0.8921 H   0  0  0  0  0  0  0  0  0  0  0  0
    5.2286    1.1732   -0.7691 H   0  0  0  0  0  0  0  0  0  0  0  0
    4.5442    0.8805    1.6072 H   0  0  0  0  0  0  0  0  0  0  0  0
    4.9955   -0.8993    1.5495 H   0  0  0  0  0  0  0  0  0  0  0  0
    3.3076   -1.2171   -0.3005 H   0  0  0  0  0  0  0  0  0  0  0  0
    2.2633    0.8119   -1.1599 H   0  0  0  0  0  0  0  0  0  0  0  0
    1.2173    1.8161    0.9235 H   0  0  0  0  0  0  0  0  0  0  0  0
    2.0429    0.4807    1.7223 H   0  0  0  0  0  0  0  0  0  0  0  0
   -0.4579    1.3003   -0.8327 H   0  0  0  0  0  0  0  0  0  0  0  0
    0.1398    0.1573   -2.8071 H   0  0  0  0  0  0  0  0  0  0  0  0
    0.6838   -1.1353   -1.9678 H   0  0  0  0  0  0  0  0  0  0  0  0
   -1.6345   -1.4605   -0.4180 H   0  0  0  0  0  0  0  0  0  0  0  0
   -1.9423   -0.6409   -1.9312 H   0  0  0  0  0  0  0  0  0  0  0  0
   -2.9816    1.2664   -0.8584 H   0  0  0  0  0  0  0  0  0  0  0  0
   -2.5547    0.7063    0.7435 H   0  0  0  0  0  0  0  0  0  0  0  0
   -4.0024   -1.3211    0.4216 H   0  0  0  0  0  0  0  0  0  0  0  0
   -4.4309   -0.7572   -1.1868 H   0  0  0  0  0  0  0  0  0  0  0  0
   -5.4837    1.3060   -0.1877 H   0  0  0  0  0  0  0  0  0  0  0  0
   -6.2143   -0.1628    0.4779 H   0  0  0  0  0  0  0  0  0  0  0  0
   -5.0328    0.7502    1.4291 H   0  0  0  0  0  0  0  0  0  0  0  0
   -1.0906   -0.6555    1.5788 H   0  0  0  0  0  0  0  0  0  0  0  0
    0.9569   -1.7894    1.3242 H   0  0  0  0  0  0  0  0  0  0  0  0
  1  3  1  0  0  0  0
  1  2  1  0  0  0  0
  2 18  1  0  0  0  0
  2 17  1  0  0  0  0
  3  2  1  0  0  0  0
  4  3  1  0  0  0  0
  4  5  1  0  0  0  0
  5 21  1  0  0  0  0
  5 22  1  0  0  0  0
  6  5  1  0  0  0  0
  6 13  1  0  0  0  0
  7 23  1  6  0  0  0
  7  6  1  0  0  0  0
  8  7  1  0  0  0  0
  9  7  1  0  0  0  0
  9 26  1  0  0  0  0
  9 10  1  0  0  0  0
 10 11  1  0  0  0  0
 10 29  1  0  0  0  0
 11 12  1  0  0  0  0
 11 30  1  0  0  0  0
 12 33  1  0  0  0  0
 12 34  1  0  0  0  0
 14  6  1  0  0  0  0
 14 36  1  0  0  0  0
 15  1  1  0  0  0  0
 16  1  1  0  0  0  0
 19  3  1  0  0  0  0
 20  4  1  0  0  0  0
 24  8  1  0  0  0  0
 25  8  1  0  0  0  0
 27  9  1  0  0  0  0
 28 10  1  0  0  0  0
 31 11  1  0  0  0  0
 32 12  1  0  0  0  0
 35 13  1  0  0  0  0
M  END
