omegapdb_1xom_10.xyz
 OpenBabel12161914463D

 50 52  0  0  1  0  0  0  0  0999 V2000
    6.4769    1.8608   -0.2323 O   0  0  0  0  0  0  0  0  0  0  0  0
    5.8495    0.7621   -0.7023 C   0  0  0  0  0  0  0  0  0  0  0  0
    6.4502   -0.2564   -0.9534 O   0  0  0  0  0  0  0  0  0  0  0  0
    4.3558    0.9820   -0.8634 C   0  0  1  0  0  0  0  0  0  0  0  0
    3.6564   -0.2848   -1.3776 C   0  0  0  0  0  0  0  0  0  0  0  0
    3.1930   -1.1646   -0.2199 C   0  0  0  0  0  0  0  0  0  0  0  0
    2.1019   -0.4573    0.6550 C   0  0  2  0  0  0  0  0  0  0  0  0
    2.2670    1.0839    0.5356 C   0  0  0  0  0  0  0  0  0  0  0  0
    3.7383    1.4782    0.4684 C   0  0  0  0  0  0  0  0  0  0  0  0
    2.3707   -0.8372    2.0670 C   0  0  0  0  0  0  0  0  0  0  0  0
    2.5871   -1.1321    3.1656 N   0  0  0  0  0  0  0  0  0  0  0  0
    0.6867   -0.9541    0.3041 C   0  0  0  0  0  0  0  0  0  0  0  0
    0.3876   -2.2998    0.5002 C   0  0  0  0  0  0  0  0  0  0  0  0
   -0.8582   -2.8246    0.1582 C   0  0  0  0  0  0  0  0  0  0  0  0
   -1.8433   -2.0025   -0.3781 C   0  0  0  0  0  0  0  0  0  0  0  0
   -3.0877   -2.4111   -0.7373 O   0  0  0  0  0  0  0  0  0  0  0  0
   -3.3907   -3.7792   -0.5721 C   0  0  0  0  0  0  0  0  0  0  0  0
   -1.5568   -0.6387   -0.5642 C   0  0  0  0  0  0  0  0  0  0  0  0
   -0.3139   -0.1339   -0.2187 C   0  0  0  0  0  0  0  0  0  0  0  0
   -2.4945    0.1949   -1.1205 O   0  0  0  0  0  0  0  0  0  0  0  0
   -3.4792    0.6594   -0.1943 C   0  0  0  0  0  0  0  0  0  0  0  0
   -4.4426    1.5986   -0.9126 C   0  0  0  0  0  0  0  0  0  0  0  0
   -5.0472    2.4944    0.1939 C   0  0  0  0  0  0  0  0  0  0  0  0
   -4.1463    2.2880    1.4407 C   0  0  0  0  0  0  0  0  0  0  0  0
   -2.9141    1.5330    0.9259 C   0  0  0  0  0  0  0  0  0  0  0  0
    7.4170    1.6238   -0.1642 H   0  0  0  0  0  0  0  0  0  0  0  0
    4.2460    1.7737   -1.6166 H   0  0  0  0  0  0  0  0  0  0  0  0
    4.3424   -0.8384   -2.0232 H   0  0  0  0  0  0  0  0  0  0  0  0
    2.7906   -0.0063   -1.9890 H   0  0  0  0  0  0  0  0  0  0  0  0
    4.0595   -1.4061    0.4055 H   0  0  0  0  0  0  0  0  0  0  0  0
    2.8005   -2.1134   -0.6007 H   0  0  0  0  0  0  0  0  0  0  0  0
    1.7580    1.5738    1.3712 H   0  0  0  0  0  0  0  0  0  0  0  0
    1.7904    1.4272   -0.3879 H   0  0  0  0  0  0  0  0  0  0  0  0
    3.8541    2.5618    0.5454 H   0  0  0  0  0  0  0  0  0  0  0  0
    4.2780    1.0437    1.3176 H   0  0  0  0  0  0  0  0  0  0  0  0
    1.1341   -2.9645    0.9326 H   0  0  0  0  0  0  0  0  0  0  0  0
   -1.0493   -3.8795    0.3152 H   0  0  0  0  0  0  0  0  0  0  0  0
   -3.3154   -4.0784    0.4818 H   0  0  0  0  0  0  0  0  0  0  0  0
   -4.4189   -3.9046   -0.9132 H   0  0  0  0  0  0  0  0  0  0  0  0
   -2.7247   -4.4110   -1.1750 H   0  0  0  0  0  0  0  0  0  0  0  0
   -0.1625    0.9324   -0.3568 H   0  0  0  0  0  0  0  0  0  0  0  0
   -4.0146   -0.2005    0.2308 H   0  0  0  0  0  0  0  0  0  0  0  0
   -3.8526    2.1969   -1.6167 H   0  0  0  0  0  0  0  0  0  0  0  0
   -5.1927    1.0553   -1.4957 H   0  0  0  0  0  0  0  0  0  0  0  0
   -6.0825    2.2171    0.4200 H   0  0  0  0  0  0  0  0  0  0  0  0
   -5.0597    3.5417   -0.1243 H   0  0  0  0  0  0  0  0  0  0  0  0
   -4.6736    1.6773    2.1825 H   0  0  0  0  0  0  0  0  0  0  0  0
   -3.8855    3.2301    1.9335 H   0  0  0  0  0  0  0  0  0  0  0  0
   -2.3932    0.9541    1.6979 H   0  0  0  0  0  0  0  0  0  0  0  0
   -2.1922    2.2346    0.4870 H   0  0  0  0  0  0  0  0  0  0  0  0
  1 26  1  0  0  0  0
  2  1  1  0  0  0  0
  3  2  2  0  0  0  0
  4 27  1  6  0  0  0
  4  2  1  0  0  0  0
  4  9  1  0  0  0  0
  5  4  1  0  0  0  0
  5  6  1  0  0  0  0
  6 30  1  0  0  0  0
  6  7  1  0  0  0  0
  7 10  1  1  0  0  0
  8  7  1  0  0  0  0
  8 32  1  0  0  0  0
  9  8  1  0  0  0  0
  9 34  1  0  0  0  0
  9 35  1  0  0  0  0
 10 11  3  0  0  0  0
 12 13  1  0  0  0  0
 12  7  1  0  0  0  0
 13 36  1  0  0  0  0
 14 37  1  0  0  0  0
 14 13  2  0  0  0  0
 15 14  1  0  0  0  0
 16 17  1  0  0  0  0
 16 15  1  0  0  0  0
 17 38  1  0  0  0  0
 18 15  2  0  0  0  0
 18 19  1  0  0  0  0
 19 12  2  0  0  0  0
 20 18  1  0  0  0  0
 20 21  1  0  0  0  0
 21 42  1  0  0  0  0
 21 25  1  0  0  0  0
 22 21  1  0  0  0  0
 22 23  1  0  0  0  0
 23 45  1  0  0  0  0
 23 24  1  0  0  0  0
 24 48  1  0  0  0  0
 24 47  1  0  0  0  0
 25 24  1  0  0  0  0
 25 49  1  0  0  0  0
 28  5  1  0  0  0  0
 29  5  1  0  0  0  0
 31  6  1  0  0  0  0
 33  8  1  0  0  0  0
 39 17  1  0  0  0  0
 40 17  1  0  0  0  0
 41 19  1  0  0  0  0
 43 22  1  0  0  0  0
 44 22  1  0  0  0  0
 46 23  1  0  0  0  0
 50 25  1  0  0  0  0
M  END
