omegapdb_1qxw_33.xyz
 OpenBabel12161914463D

 36 36  0  0  1  0  0  0  0  0999 V2000
    4.7020    0.6671    0.6001 C   0  0  0  0  0  0  0  0  0  0  0  0
    3.6364    1.1144    1.5690 C   0  0  0  0  0  0  0  0  0  0  0  0
    3.4401    1.3077    0.0963 C   0  0  0  0  0  0  0  0  0  0  0  0
    2.4475    0.5756   -0.6728 N   0  0  0  0  0  0  0  0  0  0  0  0
    2.0906   -0.7763   -0.2533 C   0  0  0  0  0  0  0  0  0  0  0  0
    0.6894   -0.7837    0.4184 C   0  0  0  0  0  0  0  0  0  0  0  0
   -0.4181   -0.6606   -0.6727 C   0  0  1  0  0  0  0  0  0  0  0  0
   -0.4014   -1.9101   -1.4423 N   0  0  0  0  0  0  0  0  0  0  0  0
   -1.7712   -0.3517   -0.0252 C   0  0  0  0  0  0  0  0  0  0  0  0
   -2.8869   -0.1825   -1.0583 C   0  0  0  0  0  0  0  0  0  0  0  0
   -4.2723    0.0778   -0.4591 C   0  0  0  0  0  0  0  0  0  0  0  0
   -4.3904    1.4050    0.2887 C   0  0  0  0  0  0  0  0  0  0  0  0
    0.6323    0.2541    1.3524 O   0  0  0  0  0  0  0  0  0  0  0  0
    0.5001   -1.9602    1.1568 O   0  0  0  0  0  0  0  0  0  0  0  0
    5.6259    1.2357    0.5480 H   0  0  0  0  0  0  0  0  0  0  0  0
    4.8317   -0.3994    0.4378 H   0  0  0  0  0  0  0  0  0  0  0  0
    3.0351    0.3643    2.0741 H   0  0  0  0  0  0  0  0  0  0  0  0
    3.8393    1.9917    2.1771 H   0  0  0  0  0  0  0  0  0  0  0  0
    3.5292    2.3362   -0.2514 H   0  0  0  0  0  0  0  0  0  0  0  0
    2.7457    0.5612   -1.6426 H   0  0  0  0  0  0  0  0  0  0  0  0
    2.0853   -1.4517   -1.1143 H   0  0  0  0  0  0  0  0  0  0  0  0
    2.7842   -1.1822    0.4909 H   0  0  0  0  0  0  0  0  0  0  0  0
   -0.1507    0.1697   -1.3409 H   0  0  0  0  0  0  0  0  0  0  0  0
   -0.6207   -1.7321   -2.4173 H   0  0  0  0  0  0  0  0  0  0  0  0
   -1.1163   -2.5434   -1.0932 H   0  0  0  0  0  0  0  0  0  0  0  0
   -1.6686    0.5599    0.5744 H   0  0  0  0  0  0  0  0  0  0  0  0
   -2.0186   -1.1588    0.6794 H   0  0  0  0  0  0  0  0  0  0  0  0
   -2.6263    0.6443   -1.7362 H   0  0  0  0  0  0  0  0  0  0  0  0
   -2.9390   -1.0842   -1.6836 H   0  0  0  0  0  0  0  0  0  0  0  0
   -4.5367   -0.7494    0.2144 H   0  0  0  0  0  0  0  0  0  0  0  0
   -5.0119    0.0581   -1.2699 H   0  0  0  0  0  0  0  0  0  0  0  0
   -5.4159    1.5690    0.6371 H   0  0  0  0  0  0  0  0  0  0  0  0
   -4.1190    2.2458   -0.3610 H   0  0  0  0  0  0  0  0  0  0  0  0
   -3.7356    1.4364    1.1666 H   0  0  0  0  0  0  0  0  0  0  0  0
    0.9594    1.0479    0.8945 H   0  0  0  0  0  0  0  0  0  0  0  0
    0.5255   -2.6961    0.5252 H   0  0  0  0  0  0  0  0  0  0  0  0
  1  2  1  0  0  0  0
  2 17  1  0  0  0  0
  2 18  1  0  0  0  0
  3  1  1  0  0  0  0
  3  2  1  0  0  0  0
  4  5  1  0  0  0  0
  4  3  1  0  0  0  0
  5  6  1  0  0  0  0
  5 22  1  0  0  0  0
  6 14  1  0  0  0  0
  6 13  1  0  0  0  0
  7 23  1  6  0  0  0
  7  9  1  0  0  0  0
  7  6  1  0  0  0  0
  8 25  1  0  0  0  0
  8  7  1  0  0  0  0
  9 26  1  0  0  0  0
  9 27  1  0  0  0  0
 10 11  1  0  0  0  0
 10  9  1  0  0  0  0
 11 30  1  0  0  0  0
 11 12  1  0  0  0  0
 12 32  1  0  0  0  0
 12 34  1  0  0  0  0
 15  1  1  0  0  0  0
 16  1  1  0  0  0  0
 19  3  1  0  0  0  0
 20  4  1  0  0  0  0
 21  5  1  0  0  0  0
 24  8  1  0  0  0  0
 28 10  1  0  0  0  0
 29 10  1  0  0  0  0
 31 11  1  0  0  0  0
 33 12  1  0  0  0  0
 35 13  1  0  0  0  0
 36 14  1  0  0  0  0
M  END
