omegapdb_1gs5_18.xyz
 OpenBabel12161914463D

 24 23  0  0  1  0  0  0  0  0999 V2000
   -0.2353   -0.6082    0.0163 C   0  0  2  0  0  0  0  0  0  0  0  0
   -1.1622   -1.7987    0.2190 C   0  0  0  0  0  0  0  0  0  0  0  0
   -2.3353   -1.7221    0.4885 O   0  0  0  0  0  0  0  0  0  0  0  0
   -0.5103   -2.9689    0.0956 O   0  0  0  0  0  0  0  0  0  0  0  0
    0.7303   -0.4899    1.2042 C   0  0  0  0  0  0  0  0  0  0  0  0
    1.8038    0.5880    0.9990 C   0  0  0  0  0  0  0  0  0  0  0  0
    2.8923    0.1462    0.0342 C   0  0  0  0  0  0  0  0  0  0  0  0
    3.0487    0.5815   -1.0738 O   0  0  0  0  0  0  0  0  0  0  0  0
    3.7090   -0.8340    0.4965 O   0  0  0  0  0  0  0  0  0  0  0  0
   -1.0059    0.5978   -0.1624 N   0  0  0  0  0  0  0  0  0  0  0  0
   -1.4203    0.9564   -1.4273 C   0  0  0  0  0  0  0  0  0  0  0  0
   -0.9761    0.4249   -2.4279 O   0  0  0  0  0  0  0  0  0  0  0  0
   -2.4344    2.0800   -1.4558 C   0  0  0  0  0  0  0  0  0  0  0  0
    0.3203   -0.7629   -0.9117 H   0  0  0  0  0  0  0  0  0  0  0  0
   -1.1705   -3.6644    0.2546 H   0  0  0  0  0  0  0  0  0  0  0  0
    0.1462   -0.2460    2.1002 H   0  0  0  0  0  0  0  0  0  0  0  0
    1.1927   -1.4668    1.3825 H   0  0  0  0  0  0  0  0  0  0  0  0
    2.2662    0.8364    1.9627 H   0  0  0  0  0  0  0  0  0  0  0  0
    1.3467    1.4946    0.5983 H   0  0  0  0  0  0  0  0  0  0  0  0
    3.4772   -1.0633    1.4068 H   0  0  0  0  0  0  0  0  0  0  0  0
   -1.6305    0.8378    0.5962 H   0  0  0  0  0  0  0  0  0  0  0  0
   -2.0071    2.9926   -1.0259 H   0  0  0  0  0  0  0  0  0  0  0  0
   -2.7164    2.2668   -2.4924 H   0  0  0  0  0  0  0  0  0  0  0  0
   -3.3290    1.8221   -0.8775 H   0  0  0  0  0  0  0  0  0  0  0  0
  1 14  1  6  0  0  0
  1  2  1  0  0  0  0
  1  5  1  0  0  0  0
  2  3  2  0  0  0  0
  4  2  1  0  0  0  0
  4 15  1  0  0  0  0
  5 17  1  0  0  0  0
  5 16  1  0  0  0  0
  6  5  1  0  0  0  0
  6 18  1  0  0  0  0
  7  9  1  0  0  0  0
  7  6  1  0  0  0  0
  8  7  2  0  0  0  0
  9 20  1  0  0  0  0
 10  1  1  0  0  0  0
 10 21  1  0  0  0  0
 11 10  1  0  0  0  0
 12 11  2  0  0  0  0
 13 11  1  0  0  0  0
 13 22  1  0  0  0  0
 13 24  1  0  0  0  0
 19  6  1  0  0  0  0
 23 13  1  0  0  0  0
M  END
