omegapdb_1z1r_13.xyz
 OpenBabel12161914463D

 66 68  0  0  1  0  0  0  0  0999 V2000
    0.3428    0.0481    0.5107 C   0  0  2  0  0  0  0  0  0  0  0  0
    0.7925   -0.8914   -0.6250 C   0  0  0  0  0  0  0  0  0  0  0  0
   -0.2895   -1.8879   -0.9697 C   0  0  0  0  0  0  0  0  0  0  0  0
   -1.1127   -1.7179   -2.0879 C   0  0  0  0  0  0  0  0  0  0  0  0
   -2.2398   -2.5060   -2.2723 C   0  0  0  0  0  0  0  0  0  0  0  0
   -2.5811   -3.4558   -1.3111 C   0  0  0  0  0  0  0  0  0  0  0  0
   -1.6956   -3.7382   -0.2689 C   0  0  0  0  0  0  0  0  0  0  0  0
   -0.5731   -2.9408   -0.0961 C   0  0  0  0  0  0  0  0  0  0  0  0
   -3.8067   -4.0526   -1.4138 O   0  0  0  0  0  0  0  0  0  0  0  0
   -4.5940   -4.0907   -0.2261 C   0  0  0  0  0  0  0  0  0  0  0  0
   -5.1914   -2.7480    0.1960 C   0  0  0  0  0  0  0  0  0  0  0  0
   -4.1702   -1.6723    0.5739 C   0  0  0  0  0  0  0  0  0  0  0  0
   -4.7932   -0.6151    1.4682 C   0  0  0  0  0  0  0  0  0  0  0  0
   -5.5901   -0.9124    2.3411 O   0  0  0  0  0  0  0  0  0  0  0  0
   -4.4229    0.7039    1.3012 N   0  0  0  0  0  0  0  0  0  0  0  0
   -3.2982    1.1886    0.5321 C   0  0  2  0  0  0  0  0  0  0  0  0
   -1.9556    0.7019    1.1113 C   0  0  0  0  0  0  0  0  0  0  0  0
   -1.8284    0.4149    2.2917 O   0  0  0  0  0  0  0  0  0  0  0  0
   -0.9538    0.6134    0.1978 N   0  0  0  0  0  0  0  0  0  0  0  0
   -3.3633    2.7201    0.5055 C   0  0  0  0  0  0  0  0  0  0  0  0
   -2.4710    3.3507   -0.5535 C   0  0  0  0  0  0  0  0  0  0  0  0
   -1.9322    2.7092   -1.4491 O   0  0  0  0  0  0  0  0  0  0  0  0
   -2.3261    4.6944   -0.4556 N   0  0  0  0  0  0  0  0  0  0  0  0
    1.3507    1.1718    0.7836 C   0  0  2  0  0  0  0  0  0  0  0  0
    1.5775    1.8766   -0.4202 O   0  0  0  0  0  0  0  0  0  0  0  0
    2.6740    0.6574    1.3529 C   0  0  0  0  0  0  0  0  0  0  0  0
    3.6157    1.7857    1.4698 N   0  0  0  0  0  0  0  0  0  0  0  0
    5.1879    1.3929    1.9020 S   0  0  0  0  0  0  0  0  0  0  0  0
    5.1843    0.1422    2.6453 O   0  0  0  0  0  0  0  0  0  0  0  0
    5.7469    2.6094    2.4663 O   0  0  0  0  0  0  0  0  0  0  0  0
    5.9354    1.0920    0.3273 C   0  0  0  0  0  0  0  0  0  0  0  0
    6.0660   -0.2146   -0.1313 C   0  0  0  0  0  0  0  0  0  0  0  0
    6.6297   -0.4366   -1.3830 C   0  0  0  0  0  0  0  0  0  0  0  0
    7.0574    0.6408   -2.1566 C   0  0  0  0  0  0  0  0  0  0  0  0
    6.9259    1.9433   -1.6797 C   0  0  0  0  0  0  0  0  0  0  0  0
    6.3649    2.1770   -0.4284 C   0  0  0  0  0  0  0  0  0  0  0  0
    0.2008   -0.5255    1.4345 H   0  0  0  0  0  0  0  0  0  0  0  0
    1.6986   -1.4304   -0.3140 H   0  0  0  0  0  0  0  0  0  0  0  0
    1.0581   -0.2857   -1.4985 H   0  0  0  0  0  0  0  0  0  0  0  0
   -0.8891   -0.9327   -2.8088 H   0  0  0  0  0  0  0  0  0  0  0  0
   -2.9121   -2.3504   -3.1127 H   0  0  0  0  0  0  0  0  0  0  0  0
   -1.8942   -4.5550    0.4207 H   0  0  0  0  0  0  0  0  0  0  0  0
    0.0763   -3.1209    0.7585 H   0  0  0  0  0  0  0  0  0  0  0  0
   -4.0082   -4.5071    0.6051 H   0  0  0  0  0  0  0  0  0  0  0  0
   -5.3987   -4.7956   -0.4512 H   0  0  0  0  0  0  0  0  0  0  0  0
   -5.8279   -2.9293    1.0701 H   0  0  0  0  0  0  0  0  0  0  0  0
   -5.8444   -2.3823   -0.6062 H   0  0  0  0  0  0  0  0  0  0  0  0
   -3.3470   -2.1094    1.1593 H   0  0  0  0  0  0  0  0  0  0  0  0
   -3.7142   -1.2260   -0.3127 H   0  0  0  0  0  0  0  0  0  0  0  0
   -4.6482    1.2400    2.1317 H   0  0  0  0  0  0  0  0  0  0  0  0
   -3.3931    0.8362   -0.5027 H   0  0  0  0  0  0  0  0  0  0  0  0
   -1.0821    1.0648   -0.7022 H   0  0  0  0  0  0  0  0  0  0  0  0
   -3.1219    3.1238    1.4970 H   0  0  0  0  0  0  0  0  0  0  0  0
   -4.4015    3.0010    0.2883 H   0  0  0  0  0  0  0  0  0  0  0  0
   -1.7915    5.1699   -1.1662 H   0  0  0  0  0  0  0  0  0  0  0  0
   -2.7898    5.2404    0.2518 H   0  0  0  0  0  0  0  0  0  0  0  0
    0.8862    1.8422    1.5298 H   0  0  0  0  0  0  0  0  0  0  0  0
    2.4295    2.3265   -0.3028 H   0  0  0  0  0  0  0  0  0  0  0  0
    2.5250    0.1660    2.3206 H   0  0  0  0  0  0  0  0  0  0  0  0
    3.1172   -0.0709    0.6676 H   0  0  0  0  0  0  0  0  0  0  0  0
    3.3088    2.5207    2.1076 H   0  0  0  0  0  0  0  0  0  0  0  0
    5.7365   -1.0387    0.4956 H   0  0  0  0  0  0  0  0  0  0  0  0
    6.7360   -1.4521   -1.7547 H   0  0  0  0  0  0  0  0  0  0  0  0
    7.4969    0.4637   -3.1352 H   0  0  0  0  0  0  0  0  0  0  0  0
    7.2640    2.7805   -2.2845 H   0  0  0  0  0  0  0  0  0  0  0  0
    6.2676    3.1826   -0.0292 H   0  0  0  0  0  0  0  0  0  0  0  0
  1 24  1  0  0  0  0
  1 37  1  1  0  0  0
  2 38  1  0  0  0  0
  2  1  1  0  0  0  0
  3  2  1  0  0  0  0
  3  8  2  0  0  0  0
  4  3  1  0  0  0  0
  5  4  2  0  0  0  0
  5  6  1  0  0  0  0
  6  7  2  0  0  0  0
  7  8  1  0  0  0  0
  7 42  1  0  0  0  0
  8 43  1  0  0  0  0
  9  6  1  0  0  0  0
  9 10  1  0  0  0  0
 10 11  1  0  0  0  0
 10 44  1  0  0  0  0
 11 12  1  0  0  0  0
 11 46  1  0  0  0  0
 12 48  1  0  0  0  0
 12 13  1  0  0  0  0
 13 14  2  0  0  0  0
 15 13  1  0  0  0  0
 15 50  1  0  0  0  0
 16 51  1  6  0  0  0
 16 17  1  0  0  0  0
 16 15  1  0  0  0  0
 17 18  2  0  0  0  0
 19  1  1  0  0  0  0
 19 17  1  0  0  0  0
 20 16  1  0  0  0  0
 20 53  1  0  0  0  0
 21 23  1  0  0  0  0
 21 20  1  0  0  0  0
 22 21  2  0  0  0  0
 23 56  1  0  0  0  0
 24 26  1  0  0  0  0
 24 57  1  1  0  0  0
 25 58  1  0  0  0  0
 25 24  1  0  0  0  0
 26 27  1  0  0  0  0
 26 59  1  0  0  0  0
 27 28  1  0  0  0  0
 27 61  1  0  0  0  0
 28 30  2  0  0  0  0
 28 29  2  0  0  0  0
 31 28  1  0  0  0  0
 32 31  1  0  0  0  0
 32 62  1  0  0  0  0
 33 32  2  0  0  0  0
 34 35  2  0  0  0  0
 34 33  1  0  0  0  0
 35 36  1  0  0  0  0
 36 66  1  0  0  0  0
 36 31  2  0  0  0  0
 39  2  1  0  0  0  0
 40  4  1  0  0  0  0
 41  5  1  0  0  0  0
 45 10  1  0  0  0  0
 47 11  1  0  0  0  0
 49 12  1  0  0  0  0
 52 19  1  0  0  0  0
 54 20  1  0  0  0  0
 55 23  1  0  0  0  0
 60 26  1  0  0  0  0
 63 33  1  0  0  0  0
 64 34  1  0  0  0  0
 65 35  1  0  0  0  0
M  END
