omegapdb_1z1r_07.xyz
 OpenBabel12161914463D

 66 68  0  0  1  0  0  0  0  0999 V2000
    0.9747    0.3868    0.5452 C   0  0  2  0  0  0  0  0  0  0  0  0
    1.2724   -0.2688   -0.8094 C   0  0  0  0  0  0  0  0  0  0  0  0
    0.1588   -1.2298   -1.1782 C   0  0  0  0  0  0  0  0  0  0  0  0
   -0.6979   -0.9741   -2.2529 C   0  0  0  0  0  0  0  0  0  0  0  0
   -1.8127   -1.7664   -2.4939 C   0  0  0  0  0  0  0  0  0  0  0  0
   -2.1176   -2.8183   -1.6313 C   0  0  0  0  0  0  0  0  0  0  0  0
   -1.2491   -3.1230   -0.5844 C   0  0  0  0  0  0  0  0  0  0  0  0
   -0.1221   -2.3373   -0.3734 C   0  0  0  0  0  0  0  0  0  0  0  0
   -3.2646   -3.5238   -1.8736 O   0  0  0  0  0  0  0  0  0  0  0  0
   -4.1466   -3.7881   -0.7856 C   0  0  0  0  0  0  0  0  0  0  0  0
   -5.1331   -2.6525   -0.5210 C   0  0  0  0  0  0  0  0  0  0  0  0
   -4.5110   -1.3558   -0.0106 C   0  0  0  0  0  0  0  0  0  0  0  0
   -4.0548   -1.4576    1.4426 C   0  0  0  0  0  0  0  0  0  0  0  0
   -4.3433   -2.4157    2.1432 O   0  0  0  0  0  0  0  0  0  0  0  0
   -3.3444   -0.4057    1.9594 N   0  0  0  0  0  0  0  0  0  0  0  0
   -2.7169    0.6863    1.2508 C   0  0  2  0  0  0  0  0  0  0  0  0
   -1.2217    0.6504    1.5779 C   0  0  0  0  0  0  0  0  0  0  0  0
   -0.8353    0.3798    2.7172 O   0  0  0  0  0  0  0  0  0  0  0  0
   -0.3830    0.8963    0.5526 N   0  0  0  0  0  0  0  0  0  0  0  0
   -3.2968    2.0534    1.6268 C   0  0  0  0  0  0  0  0  0  0  0  0
   -2.8282    3.1319    0.6616 C   0  0  0  0  0  0  0  0  0  0  0  0
   -2.1848    2.8806   -0.3513 O   0  0  0  0  0  0  0  0  0  0  0  0
   -3.1837    4.3993    0.9841 N   0  0  0  0  0  0  0  0  0  0  0  0
    1.9812    1.4330    1.0654 C   0  0  2  0  0  0  0  0  0  0  0  0
    1.5358    1.9563    2.2975 O   0  0  0  0  0  0  0  0  0  0  0  0
    2.2048    2.6355    0.1505 C   0  0  0  0  0  0  0  0  0  0  0  0
    3.0210    2.3222   -1.0227 N   0  0  0  0  0  0  0  0  0  0  0  0
    4.6827    2.5110   -0.9101 S   0  0  0  0  0  0  0  0  0  0  0  0
    5.0006    3.3559    0.2327 O   0  0  0  0  0  0  0  0  0  0  0  0
    5.1060    2.8650   -2.2563 O   0  0  0  0  0  0  0  0  0  0  0  0
    5.2638    0.8765   -0.5498 C   0  0  0  0  0  0  0  0  0  0  0  0
    5.6791    0.5611    0.7401 C   0  0  0  0  0  0  0  0  0  0  0  0
    6.1272   -0.7290    1.0092 C   0  0  0  0  0  0  0  0  0  0  0  0
    6.1597   -1.6850   -0.0042 C   0  0  0  0  0  0  0  0  0  0  0  0
    5.7514   -1.3493   -1.2938 C   0  0  0  0  0  0  0  0  0  0  0  0
    5.3041   -0.0623   -1.5756 C   0  0  0  0  0  0  0  0  0  0  0  0
    0.9871   -0.3982    1.3129 H   0  0  0  0  0  0  0  0  0  0  0  0
    1.3811    0.5014   -1.5797 H   0  0  0  0  0  0  0  0  0  0  0  0
    2.2325   -0.7933   -0.7439 H   0  0  0  0  0  0  0  0  0  0  0  0
   -0.5080   -0.1236   -2.9040 H   0  0  0  0  0  0  0  0  0  0  0  0
   -2.4988   -1.5512   -3.3098 H   0  0  0  0  0  0  0  0  0  0  0  0
   -1.4499   -3.9730    0.0634 H   0  0  0  0  0  0  0  0  0  0  0  0
    0.5324   -2.5828    0.4618 H   0  0  0  0  0  0  0  0  0  0  0  0
   -3.5910   -4.0236    0.1304 H   0  0  0  0  0  0  0  0  0  0  0  0
   -4.6965   -4.6839   -1.0874 H   0  0  0  0  0  0  0  0  0  0  0  0
   -5.8508   -3.0078    0.2271 H   0  0  0  0  0  0  0  0  0  0  0  0
   -5.6816   -2.4518   -1.4480 H   0  0  0  0  0  0  0  0  0  0  0  0
   -5.2488   -0.5434   -0.0714 H   0  0  0  0  0  0  0  0  0  0  0  0
   -3.6722   -1.0585   -0.6491 H   0  0  0  0  0  0  0  0  0  0  0  0
   -2.9929   -0.5720    2.8959 H   0  0  0  0  0  0  0  0  0  0  0  0
   -2.8550    0.5552    0.1760 H   0  0  0  0  0  0  0  0  0  0  0  0
   -0.7692    1.3533   -0.2665 H   0  0  0  0  0  0  0  0  0  0  0  0
   -4.3908    1.9894    1.5988 H   0  0  0  0  0  0  0  0  0  0  0  0
   -3.0141    2.3096    2.6545 H   0  0  0  0  0  0  0  0  0  0  0  0
   -3.6881    4.6211    1.8261 H   0  0  0  0  0  0  0  0  0  0  0  0
   -2.8936    5.1485    0.3752 H   0  0  0  0  0  0  0  0  0  0  0  0
    2.9449    0.9164    1.2067 H   0  0  0  0  0  0  0  0  0  0  0  0
    0.9042    1.3328    2.7011 H   0  0  0  0  0  0  0  0  0  0  0  0
    2.6729    3.4199    0.7498 H   0  0  0  0  0  0  0  0  0  0  0  0
    1.2324    3.0022   -0.1947 H   0  0  0  0  0  0  0  0  0  0  0  0
    2.7411    2.8053   -1.8723 H   0  0  0  0  0  0  0  0  0  0  0  0
    5.6482    1.3219    1.5167 H   0  0  0  0  0  0  0  0  0  0  0  0
    6.4547   -0.9865    2.0124 H   0  0  0  0  0  0  0  0  0  0  0  0
    6.5062   -2.6931    0.2105 H   0  0  0  0  0  0  0  0  0  0  0  0
    5.7887   -2.0933   -2.0856 H   0  0  0  0  0  0  0  0  0  0  0  0
    4.9990    0.2197   -2.5802 H   0  0  0  0  0  0  0  0  0  0  0  0
  1 19  1  0  0  0  0
  1 24  1  0  0  0  0
  1 37  1  1  0  0  0
  2 39  1  0  0  0  0
  2  1  1  0  0  0  0
  3  2  1  0  0  0  0
  3  8  2  0  0  0  0
  4  3  1  0  0  0  0
  5  4  2  0  0  0  0
  5  6  1  0  0  0  0
  6  7  2  0  0  0  0
  7  8  1  0  0  0  0
  7 42  1  0  0  0  0
  8 43  1  0  0  0  0
  9  6  1  0  0  0  0
  9 10  1  0  0  0  0
 10 11  1  0  0  0  0
 10 44  1  0  0  0  0
 11 12  1  0  0  0  0
 11 46  1  0  0  0  0
 12 13  1  0  0  0  0
 13 15  1  0  0  0  0
 13 14  2  0  0  0  0
 15 50  1  0  0  0  0
 16 51  1  6  0  0  0
 16 17  1  0  0  0  0
 16 20  1  0  0  0  0
 16 15  1  0  0  0  0
 17 18  2  0  0  0  0
 19 17  1  0  0  0  0
 20 54  1  0  0  0  0
 21 23  1  0  0  0  0
 21 20  1  0  0  0  0
 22 21  2  0  0  0  0
 23 55  1  0  0  0  0
 24 57  1  1  0  0  0
 24 25  1  0  0  0  0
 25 58  1  0  0  0  0
 26 59  1  0  0  0  0
 26 24  1  0  0  0  0
 27 28  1  0  0  0  0
 27 26  1  0  0  0  0
 28 31  1  0  0  0  0
 28 29  2  0  0  0  0
 30 28  2  0  0  0  0
 31 32  2  0  0  0  0
 32 33  1  0  0  0  0
 32 62  1  0  0  0  0
 33 63  1  0  0  0  0
 34 64  1  0  0  0  0
 34 33  2  0  0  0  0
 35 34  1  0  0  0  0
 36 35  2  0  0  0  0
 36 31  1  0  0  0  0
 38  2  1  0  0  0  0
 40  4  1  0  0  0  0
 41  5  1  0  0  0  0
 45 10  1  0  0  0  0
 47 11  1  0  0  0  0
 48 12  1  0  0  0  0
 49 12  1  0  0  0  0
 52 19  1  0  0  0  0
 53 20  1  0  0  0  0
 56 23  1  0  0  0  0
 60 26  1  0  0  0  0
 61 27  1  0  0  0  0
 65 35  1  0  0  0  0
 66 36  1  0  0  0  0
M  END
