omegapdb_2f7p_17.xyz
 OpenBabel12161914463D

 34 35  0  0  1  0  0  0  0  0999 V2000
   -1.2782   -0.9658   -0.3456 C   0  0  1  0  0  0  0  0  0  0  0  0
    0.0534   -0.6134    0.1509 N   0  0  0  0  0  0  0  0  0  0  0  0
    0.9981   -0.3086   -0.9233 C   0  0  0  0  0  0  0  0  0  0  0  0
    2.3383    0.1535   -0.3991 C   0  0  0  0  0  0  0  0  0  0  0  0
    2.8959   -0.4124    0.7476 C   0  0  0  0  0  0  0  0  0  0  0  0
    4.1386    0.0043    1.2107 C   0  0  0  0  0  0  0  0  0  0  0  0
    4.8452    0.9924    0.5310 C   0  0  0  0  0  0  0  0  0  0  0  0
    4.3012    1.5567   -0.6184 C   0  0  0  0  0  0  0  0  0  0  0  0
    3.0562    1.1375   -1.0779 C   0  0  0  0  0  0  0  0  0  0  0  0
   -2.1114   -1.6116    0.8065 C   0  0  1  0  0  0  0  0  0  0  0  0
   -1.3182   -2.1145    1.8548 O   0  0  0  0  0  0  0  0  0  0  0  0
   -3.0008   -0.4611    1.2865 C   0  0  1  0  0  0  0  0  0  0  0  0
   -2.1814    0.4362    2.0097 O   0  0  0  0  0  0  0  0  0  0  0  0
   -3.4252    0.1938   -0.0183 C   0  0  1  0  0  0  0  0  0  0  0  0
   -4.0296    1.4383    0.2055 O   0  0  0  0  0  0  0  0  0  0  0  0
   -2.1035    0.2655   -0.8131 C   0  0  2  0  0  0  0  0  0  0  0  0
   -2.3243    0.2894   -2.6153 S   0  0  0  0  0  0  0  0  0  0  0  0
   -1.1484   -1.6958   -1.1520 H   0  0  0  0  0  0  0  0  0  0  0  0
   -0.0362    0.2001    0.7603 H   0  0  0  0  0  0  0  0  0  0  0  0
    1.1264   -1.2294   -1.5083 H   0  0  0  0  0  0  0  0  0  0  0  0
    0.6051    0.4466   -1.6243 H   0  0  0  0  0  0  0  0  0  0  0  0
    2.3451   -1.1840    1.2806 H   0  0  0  0  0  0  0  0  0  0  0  0
    4.5537   -0.4405    2.1116 H   0  0  0  0  0  0  0  0  0  0  0  0
    5.8152    1.3203    0.8956 H   0  0  0  0  0  0  0  0  0  0  0  0
    4.8459    2.3279   -1.1585 H   0  0  0  0  0  0  0  0  0  0  0  0
    2.6391    1.5786   -1.9811 H   0  0  0  0  0  0  0  0  0  0  0  0
   -2.7317   -2.4268    0.4123 H   0  0  0  0  0  0  0  0  0  0  0  0
   -0.4049   -1.9199    1.5743 H   0  0  0  0  0  0  0  0  0  0  0  0
   -3.8605   -0.7926    1.8842 H   0  0  0  0  0  0  0  0  0  0  0  0
   -1.7156   -0.1250    2.6502 H   0  0  0  0  0  0  0  0  0  0  0  0
   -4.1124   -0.4975   -0.5344 H   0  0  0  0  0  0  0  0  0  0  0  0
   -4.4220    1.7223   -0.6301 H   0  0  0  0  0  0  0  0  0  0  0  0
   -1.5883    1.1812   -0.5068 H   0  0  0  0  0  0  0  0  0  0  0  0
   -2.7649    1.5540   -2.7103 H   0  0  0  0  0  0  0  0  0  0  0  0
  1 16  1  6  0  0  0
  1  2  1  0  0  0  0
  2 19  1  0  0  0  0
  3  4  1  0  0  0  0
  3  2  1  0  0  0  0
  4  5  2  0  0  0  0
  5  6  1  0  0  0  0
  5 22  1  0  0  0  0
  6 23  1  0  0  0  0
  7 24  1  0  0  0  0
  7  6  2  0  0  0  0
  8  7  1  0  0  0  0
  9  8  2  0  0  0  0
  9  4  1  0  0  0  0
 10  1  1  6  0  0  0
 10 12  1  0  0  0  0
 10 11  1  0  0  0  0
 12 14  1  6  0  0  0
 12 29  1  0  0  0  0
 12 13  1  0  0  0  0
 13 30  1  0  0  0  0
 14 16  1  6  0  0  0
 14 15  1  0  0  0  0
 16 33  1  1  0  0  0
 17 16  1  0  0  0  0
 18  1  1  0  0  0  0
 20  3  1  0  0  0  0
 21  3  1  0  0  0  0
 25  8  1  0  0  0  0
 26  9  1  0  0  0  0
 27 10  1  0  0  0  0
 28 11  1  0  0  0  0
 31 14  1  0  0  0  0
 32 15  1  0  0  0  0
 34 17  1  0  0  0  0
M  END
