omegapdb_1xom_00.xyz
 OpenBabel12161914463D

 50 52  0  0  1  0  0  0  0  0999 V2000
    5.9261    2.6686   -0.3765 O   0  0  0  0  0  0  0  0  0  0  0  0
    5.8329    1.3999    0.0787 C   0  0  0  0  0  0  0  0  0  0  0  0
    6.8136    0.7428    0.3355 O   0  0  0  0  0  0  0  0  0  0  0  0
    4.3961    0.9487    0.2542 C   0  0  1  0  0  0  0  0  0  0  0  0
    3.5009    1.2988   -0.9435 C   0  0  0  0  0  0  0  0  0  0  0  0
    2.0658    0.8559   -0.6665 C   0  0  0  0  0  0  0  0  0  0  0  0
    1.9614   -0.6596   -0.3658 C   0  0  2  0  0  0  0  0  0  0  0  0
    2.8945   -0.9868    0.8338 C   0  0  0  0  0  0  0  0  0  0  0  0
    4.3344   -0.5423    0.5888 C   0  0  0  0  0  0  0  0  0  0  0  0
    2.4481   -1.4001   -1.5590 C   0  0  0  0  0  0  0  0  0  0  0  0
    2.8217   -1.9773   -2.4905 N   0  0  0  0  0  0  0  0  0  0  0  0
    0.5280   -1.1358   -0.0730 C   0  0  0  0  0  0  0  0  0  0  0  0
    0.2711   -2.4976    0.0076 C   0  0  0  0  0  0  0  0  0  0  0  0
   -0.9979   -2.9699    0.3468 C   0  0  0  0  0  0  0  0  0  0  0  0
   -2.0382   -2.0884    0.6006 C   0  0  0  0  0  0  0  0  0  0  0  0
   -3.2997   -2.4492    0.9388 O   0  0  0  0  0  0  0  0  0  0  0  0
   -3.5644   -3.8272    1.0651 C   0  0  0  0  0  0  0  0  0  0  0  0
   -1.7957   -0.7008    0.4925 C   0  0  0  0  0  0  0  0  0  0  0  0
   -0.5249   -0.2480    0.1584 C   0  0  0  0  0  0  0  0  0  0  0  0
   -2.8692    0.0974    0.7418 O   0  0  0  0  0  0  0  0  0  0  0  0
   -2.7474    1.5031    0.5530 C   0  0  0  0  0  0  0  0  0  0  0  0
   -2.7610    1.8620   -0.9346 C   0  0  0  0  0  0  0  0  0  0  0  0
   -4.2472    1.7587   -1.3487 C   0  0  0  0  0  0  0  0  0  0  0  0
   -5.0608    1.8214   -0.0302 C   0  0  0  0  0  0  0  0  0  0  0  0
   -4.0367    2.1182    1.0788 C   0  0  0  0  0  0  0  0  0  0  0  0
    6.8770    2.8600   -0.4321 H   0  0  0  0  0  0  0  0  0  0  0  0
    4.0180    1.5176    1.1198 H   0  0  0  0  0  0  0  0  0  0  0  0
    3.8791    0.8103   -1.8506 H   0  0  0  0  0  0  0  0  0  0  0  0
    3.5374    2.3778   -1.1208 H   0  0  0  0  0  0  0  0  0  0  0  0
    1.6993    1.4015    0.2135 H   0  0  0  0  0  0  0  0  0  0  0  0
    1.4136    1.1126   -1.5083 H   0  0  0  0  0  0  0  0  0  0  0  0
    2.4898   -0.4694    1.7121 H   0  0  0  0  0  0  0  0  0  0  0  0
    2.8473   -2.0596    1.0532 H   0  0  0  0  0  0  0  0  0  0  0  0
    4.7715   -1.1168   -0.2366 H   0  0  0  0  0  0  0  0  0  0  0  0
    4.9555   -0.7453    1.4664 H   0  0  0  0  0  0  0  0  0  0  0  0
    1.0593   -3.2185   -0.2031 H   0  0  0  0  0  0  0  0  0  0  0  0
   -1.1565   -4.0400    0.4091 H   0  0  0  0  0  0  0  0  0  0  0  0
   -2.9432   -4.2846    1.8465 H   0  0  0  0  0  0  0  0  0  0  0  0
   -4.6151   -3.9086    1.3458 H   0  0  0  0  0  0  0  0  0  0  0  0
   -3.3987   -4.3563    0.1173 H   0  0  0  0  0  0  0  0  0  0  0  0
   -0.3568    0.8190    0.0571 H   0  0  0  0  0  0  0  0  0  0  0  0
   -1.8624    1.8726    1.0875 H   0  0  0  0  0  0  0  0  0  0  0  0
   -2.3960    2.8899   -1.0415 H   0  0  0  0  0  0  0  0  0  0  0  0
   -2.1082    1.2193   -1.5322 H   0  0  0  0  0  0  0  0  0  0  0  0
   -4.4410    0.8171   -1.8693 H   0  0  0  0  0  0  0  0  0  0  0  0
   -4.5155    2.5657   -2.0378 H   0  0  0  0  0  0  0  0  0  0  0  0
   -5.8525    2.5764   -0.0633 H   0  0  0  0  0  0  0  0  0  0  0  0
   -5.5441    0.8593    0.1571 H   0  0  0  0  0  0  0  0  0  0  0  0
   -3.8945    3.2003    1.1963 H   0  0  0  0  0  0  0  0  0  0  0  0
   -4.3148    1.7073    2.0537 H   0  0  0  0  0  0  0  0  0  0  0  0
  1  2  1  0  0  0  0
  2  4  1  0  0  0  0
  2  3  2  0  0  0  0
  4  9  1  0  0  0  0
  4 27  1  1  0  0  0
  5  6  1  0  0  0  0
  5  4  1  0  0  0  0
  6  7  1  0  0  0  0
  6 30  1  0  0  0  0
  7 10  1  6  0  0  0
  7 12  1  0  0  0  0
  7  8  1  0  0  0  0
  8 33  1  0  0  0  0
  8 32  1  0  0  0  0
  9  8  1  0  0  0  0
  9 35  1  0  0  0  0
 11 10  3  0  0  0  0
 12 13  2  0  0  0  0
 12 19  1  0  0  0  0
 13 14  1  0  0  0  0
 14 37  1  0  0  0  0
 14 15  2  0  0  0  0
 15 16  1  0  0  0  0
 16 17  1  0  0  0  0
 17 39  1  0  0  0  0
 17 38  1  0  0  0  0
 18 15  1  0  0  0  0
 18 20  1  0  0  0  0
 19 18  2  0  0  0  0
 21 20  1  0  0  0  0
 21 25  1  0  0  0  0
 21 42  1  0  0  0  0
 22 21  1  0  0  0  0
 23 22  1  0  0  0  0
 23 24  1  0  0  0  0
 24 48  1  0  0  0  0
 24 25  1  0  0  0  0
 25 49  1  0  0  0  0
 25 50  1  0  0  0  0
 26  1  1  0  0  0  0
 28  5  1  0  0  0  0
 29  5  1  0  0  0  0
 31  6  1  0  0  0  0
 34  9  1  0  0  0  0
 36 13  1  0  0  0  0
 40 17  1  0  0  0  0
 41 19  1  0  0  0  0
 43 22  1  0  0  0  0
 44 22  1  0  0  0  0
 45 23  1  0  0  0  0
 46 23  1  0  0  0  0
 47 24  1  0  0  0  0
M  END
