omegapdb_1m5f_17.xyz
 OpenBabel12161914463D

 25 25  0  0  1  0  0  0  0  0999 V2000
   -0.2683   -3.2082    0.2827 O   0  0  0  0  0  0  0  0  0  0  0  0
   -0.6366   -2.6759   -0.8983 C   0  0  0  0  0  0  0  0  0  0  0  0
   -0.5699   -3.2688   -1.9417 O   0  0  0  0  0  0  0  0  0  0  0  0
   -1.1498   -1.2804   -0.7435 C   0  0  0  0  0  0  0  0  0  0  0  0
   -2.0327   -0.8534   -1.6079 N   0  0  0  0  0  0  0  0  0  0  0  0
   -2.3625    0.4062   -1.1987 O   0  0  0  0  0  0  0  0  0  0  0  0
   -1.6749    0.7307   -0.0885 C   0  0  0  0  0  0  0  0  0  0  0  0
   -0.8309   -0.2928    0.2410 C   0  0  0  0  0  0  0  0  0  0  0  0
    0.3354   -0.2510    1.1880 C   0  0  0  0  0  0  0  0  0  0  0  0
    1.5100    0.5864    0.6470 C   0  0  2  0  0  0  0  0  0  0  0  0
    1.2042    2.0075    0.6603 N   0  0  0  0  0  0  0  0  0  0  0  0
    1.8759    0.1912   -0.7764 C   0  0  0  0  0  0  0  0  0  0  0  0
    2.1409    0.9702   -1.6609 O   0  0  0  0  0  0  0  0  0  0  0  0
    1.9199   -1.1407   -0.9409 O   0  0  0  0  0  0  0  0  0  0  0  0
   -1.9552    2.0673    0.4986 C   0  0  0  0  0  0  0  0  0  0  0  0
    0.0776   -4.0933    0.0808 H   0  0  0  0  0  0  0  0  0  0  0  0
    0.0286    0.1943    2.1416 H   0  0  0  0  0  0  0  0  0  0  0  0
    0.6712   -1.2686    1.3875 H   0  0  0  0  0  0  0  0  0  0  0  0
    2.3996    0.3423    1.2507 H   0  0  0  0  0  0  0  0  0  0  0  0
    1.5227    2.4323    1.5237 H   0  0  0  0  0  0  0  0  0  0  0  0
    1.6803    2.4584   -0.1152 H   0  0  0  0  0  0  0  0  0  0  0  0
    2.1608   -1.2950   -1.8709 H   0  0  0  0  0  0  0  0  0  0  0  0
   -2.9855    2.3650    0.2953 H   0  0  0  0  0  0  0  0  0  0  0  0
   -1.2801    2.8126    0.0680 H   0  0  0  0  0  0  0  0  0  0  0  0
   -1.7810    2.0638    1.5778 H   0  0  0  0  0  0  0  0  0  0  0  0
  2  4  1  0  0  0  0
  2  1  1  0  0  0  0
  3  2  2  0  0  0  0
  4  8  1  0  0  0  0
  5  6  1  0  0  0  0
  5  4  2  0  0  0  0
  6  7  1  0  0  0  0
  7  8  2  0  0  0  0
  7 15  1  0  0  0  0
  8  9  1  0  0  0  0
  9 18  1  0  0  0  0
  9 17  1  0  0  0  0
 10 11  1  0  0  0  0
 10  9  1  0  0  0  0
 10 19  1  1  0  0  0
 11 20  1  0  0  0  0
 12 10  1  0  0  0  0
 13 12  2  0  0  0  0
 14 12  1  0  0  0  0
 15 25  1  0  0  0  0
 16  1  1  0  0  0  0
 21 11  1  0  0  0  0
 22 14  1  0  0  0  0
 23 15  1  0  0  0  0
 24 15  1  0  0  0  0
M  END
