omegapdb_1qxw_06.xyz
 OpenBabel12161914463D

 36 36  0  0  1  0  0  0  0  0999 V2000
    3.7321    1.7236   -0.7187 C   0  0  0  0  0  0  0  0  0  0  0  0
    4.9111    0.8093   -0.5394 C   0  0  0  0  0  0  0  0  0  0  0  0
    3.7635    0.7487    0.4211 C   0  0  0  0  0  0  0  0  0  0  0  0
    2.9064   -0.3957    0.3193 N   0  0  0  0  0  0  0  0  0  0  0  0
    1.5118   -0.1124    0.6428 C   0  0  0  0  0  0  0  0  0  0  0  0
    0.7024   -1.3585    0.3021 C   0  0  0  0  0  0  0  0  0  0  0  0
   -0.8005   -1.1997    0.5543 C   0  0  1  0  0  0  0  0  0  0  0  0
   -1.0052   -0.9609    1.9783 N   0  0  0  0  0  0  0  0  0  0  0  0
   -1.4188   -0.0717   -0.2707 C   0  0  0  0  0  0  0  0  0  0  0  0
   -2.9454   -0.0405   -0.2062 C   0  0  0  0  0  0  0  0  0  0  0  0
   -3.5442    1.0237   -1.1242 C   0  0  0  0  0  0  0  0  0  0  0  0
   -5.0643    1.1084   -1.0264 C   0  0  0  0  0  0  0  0  0  0  0  0
    1.1905   -2.4103    1.1321 O   0  0  0  0  0  0  0  0  0  0  0  0
    0.9018   -1.6954   -1.0504 O   0  0  0  0  0  0  0  0  0  0  0  0
    3.0464    1.4984   -1.5309 H   0  0  0  0  0  0  0  0  0  0  0  0
    3.8552    2.7791   -0.4976 H   0  0  0  0  0  0  0  0  0  0  0  0
    5.8536    1.2274   -0.1996 H   0  0  0  0  0  0  0  0  0  0  0  0
    4.9967   -0.0225   -1.2311 H   0  0  0  0  0  0  0  0  0  0  0  0
    3.9235    1.1677    1.4181 H   0  0  0  0  0  0  0  0  0  0  0  0
    3.2466   -1.1399    0.9229 H   0  0  0  0  0  0  0  0  0  0  0  0
    1.1897    0.7181    0.0050 H   0  0  0  0  0  0  0  0  0  0  0  0
    1.3398    0.1766    1.6885 H   0  0  0  0  0  0  0  0  0  0  0  0
   -1.2377   -2.1560    0.2121 H   0  0  0  0  0  0  0  0  0  0  0  0
   -0.5193   -1.6833    2.5018 H   0  0  0  0  0  0  0  0  0  0  0  0
   -1.9922   -1.0395    2.2038 H   0  0  0  0  0  0  0  0  0  0  0  0
   -1.0935   -0.1785   -1.3135 H   0  0  0  0  0  0  0  0  0  0  0  0
   -1.0382    0.8926    0.0934 H   0  0  0  0  0  0  0  0  0  0  0  0
   -3.2674    0.1594    0.8260 H   0  0  0  0  0  0  0  0  0  0  0  0
   -3.3539   -1.0267   -0.4723 H   0  0  0  0  0  0  0  0  0  0  0  0
   -3.2513    0.8110   -2.1613 H   0  0  0  0  0  0  0  0  0  0  0  0
   -3.1056    1.9993   -0.8750 H   0  0  0  0  0  0  0  0  0  0  0  0
   -5.3796    1.3634   -0.0079 H   0  0  0  0  0  0  0  0  0  0  0  0
   -5.5288    0.1503   -1.2869 H   0  0  0  0  0  0  0  0  0  0  0  0
   -5.4668    1.8707   -1.7015 H   0  0  0  0  0  0  0  0  0  0  0  0
    1.0928   -3.2143    0.6052 H   0  0  0  0  0  0  0  0  0  0  0  0
    1.8487   -1.5221   -1.2059 H   0  0  0  0  0  0  0  0  0  0  0  0
  1  2  1  0  0  0  0
  1 16  1  0  0  0  0
  1  3  1  0  0  0  0
  2 17  1  0  0  0  0
  2  3  1  0  0  0  0
  3 19  1  0  0  0  0
  4  3  1  0  0  0  0
  4  5  1  0  0  0  0
  4 20  1  0  0  0  0
  5 22  1  0  0  0  0
  6  7  1  0  0  0  0
  6  5  1  0  0  0  0
  6 13  1  0  0  0  0
  7 23  1  6  0  0  0
  7  8  1  0  0  0  0
  8 25  1  0  0  0  0
  8 24  1  0  0  0  0
  9 10  1  0  0  0  0
  9 27  1  0  0  0  0
  9  7  1  0  0  0  0
 10 28  1  0  0  0  0
 11 12  1  0  0  0  0
 11 31  1  0  0  0  0
 11 10  1  0  0  0  0
 12 32  1  0  0  0  0
 14  6  1  0  0  0  0
 15  1  1  0  0  0  0
 18  2  1  0  0  0  0
 21  5  1  0  0  0  0
 26  9  1  0  0  0  0
 29 10  1  0  0  0  0
 30 11  1  0  0  0  0
 33 12  1  0  0  0  0
 34 12  1  0  0  0  0
 35 13  1  0  0  0  0
 36 14  1  0  0  0  0
M  END
