omegapdb_2byh_01.xyz
 OpenBabel12161914463D

 40 42  0  0  0  0  0  0  0  0999 V2000
    3.8711    3.5652    2.7587 O   0  0  0  0  0  0  0  0  0  0  0  0
    4.2372    2.5166    2.2630 C   0  0  0  0  0  0  0  0  0  0  0  0
    5.7093    2.1862    2.1336 C   0  0  0  0  0  0  0  0  0  0  0  0
    3.2381    1.5249    1.7617 C   0  0  0  0  0  0  0  0  0  0  0  0
    1.8793    1.8381    1.8552 C   0  0  0  0  0  0  0  0  0  0  0  0
    0.9242    0.9509    1.3908 C   0  0  0  0  0  0  0  0  0  0  0  0
    1.3054   -0.2651    0.8116 C   0  0  0  0  0  0  0  0  0  0  0  0
    2.6599   -0.5938    0.7260 C   0  0  0  0  0  0  0  0  0  0  0  0
    3.6067    0.3017    1.2011 C   0  0  0  0  0  0  0  0  0  0  0  0
    0.2916   -1.1170    0.3417 N   0  0  0  0  0  0  0  0  0  0  0  0
    0.4131   -2.1952   -0.5005 C   0  0  0  0  0  0  0  0  0  0  0  0
    1.4818   -2.6834   -0.8373 O   0  0  0  0  0  0  0  0  0  0  0  0
   -0.8662   -2.7846   -0.9490 C   0  0  0  0  0  0  0  0  0  0  0  0
   -1.0274   -4.1577   -1.2285 C   0  0  0  0  0  0  0  0  0  0  0  0
   -2.2852   -4.4690   -1.4721 N   0  0  0  0  0  0  0  0  0  0  0  0
   -2.9427   -3.3062   -1.3786 N   0  0  0  0  0  0  0  0  0  0  0  0
   -2.1498   -2.2443   -1.0991 C   0  0  0  0  0  0  0  0  0  0  0  0
   -2.6099   -0.8470   -1.1405 C   0  0  0  0  0  0  0  0  0  0  0  0
   -1.7478    0.1738   -1.5469 C   0  0  0  0  0  0  0  0  0  0  0  0
   -2.1473    1.5013   -1.5371 C   0  0  0  0  0  0  0  0  0  0  0  0
   -1.0349    2.7617   -2.0104 Cl  0  0  0  0  0  0  0  0  0  0  0  0
   -3.4372    1.8581   -1.1333 C   0  0  0  0  0  0  0  0  0  0  0  0
   -3.8771    3.1321   -1.0849 O   0  0  0  0  0  0  0  0  0  0  0  0
   -4.3225    0.8450   -0.7771 C   0  0  0  0  0  0  0  0  0  0  0  0
   -3.9240   -0.4809   -0.8028 C   0  0  0  0  0  0  0  0  0  0  0  0
   -4.8019   -1.4805   -0.4981 O   0  0  0  0  0  0  0  0  0  0  0  0
    5.9782    2.0176    1.0846 H   0  0  0  0  0  0  0  0  0  0  0  0
    6.2910    3.0197    2.5294 H   0  0  0  0  0  0  0  0  0  0  0  0
    5.9526    1.2739    2.6900 H   0  0  0  0  0  0  0  0  0  0  0  0
    1.5931    2.7874    2.2979 H   0  0  0  0  0  0  0  0  0  0  0  0
   -0.1303    1.2035    1.4773 H   0  0  0  0  0  0  0  0  0  0  0  0
    2.9562   -1.5354    0.2859 H   0  0  0  0  0  0  0  0  0  0  0  0
    4.6574    0.0308    1.1233 H   0  0  0  0  0  0  0  0  0  0  0  0
   -0.6522   -0.8417    0.5743 H   0  0  0  0  0  0  0  0  0  0  0  0
   -0.2543   -4.9152   -1.2401 H   0  0  0  0  0  0  0  0  0  0  0  0
   -3.9501   -3.2839   -1.4311 H   0  0  0  0  0  0  0  0  0  0  0  0
   -0.7476   -0.0596   -1.8906 H   0  0  0  0  0  0  0  0  0  0  0  0
   -3.1647    3.7268   -1.3637 H   0  0  0  0  0  0  0  0  0  0  0  0
   -5.3349    1.1259   -0.4927 H   0  0  0  0  0  0  0  0  0  0  0  0
   -5.6386   -1.0808   -0.2258 H   0  0  0  0  0  0  0  0  0  0  0  0
  2  1  2  0  0  0  0
  3  2  1  0  0  0  0
  3 28  1  0  0  0  0
  3 29  1  0  0  0  0
  4  5  1  0  0  0  0
  4  2  1  0  0  0  0
  5 30  1  0  0  0  0
  6 31  1  0  0  0  0
  6  5  2  0  0  0  0
  7  6  1  0  0  0  0
  8  7  2  0  0  0  0
  8  9  1  0  0  0  0
  9  4  2  0  0  0  0
 10 34  1  0  0  0  0
 10  7  1  0  0  0  0
 11 10  1  0  0  0  0
 12 11  2  0  0  0  0
 13 11  1  0  0  0  0
 14 13  1  0  0  0  0
 15 16  1  0  0  0  0
 15 14  2  0  0  0  0
 16 17  1  0  0  0  0
 17 13  2  0  0  0  0
 18 17  1  0  0  0  0
 18 25  2  0  0  0  0
 19 20  2  0  0  0  0
 19 18  1  0  0  0  0
 20 22  1  0  0  0  0
 21 20  1  0  0  0  0
 22 23  1  0  0  0  0
 22 24  2  0  0  0  0
 24 39  1  0  0  0  0
 25 24  1  0  0  0  0
 25 26  1  0  0  0  0
 26 40  1  0  0  0  0
 27  3  1  0  0  0  0
 32  8  1  0  0  0  0
 33  9  1  0  0  0  0
 35 14  1  0  0  0  0
 36 16  1  0  0  0  0
 37 19  1  0  0  0  0
 38 23  1  0  0  0  0
M  END
