omegapdb_1xom_23.xyz
 OpenBabel12161914463D

 50 52  0  0  1  0  0  0  0  0999 V2000
    6.6327    1.9253    0.4396 O   0  0  0  0  0  0  0  0  0  0  0  0
    5.4781    1.9001   -0.2684 C   0  0  0  0  0  0  0  0  0  0  0  0
    5.4536    2.3413   -1.3860 O   0  0  0  0  0  0  0  0  0  0  0  0
    4.2831    1.2563    0.4320 C   0  0  1  0  0  0  0  0  0  0  0  0
    2.9722    1.5099   -0.3352 C   0  0  0  0  0  0  0  0  0  0  0  0
    2.6892    0.3776   -1.3223 C   0  0  0  0  0  0  0  0  0  0  0  0
    2.4020   -0.9647   -0.5966 C   0  0  2  0  0  0  0  0  0  0  0  0
    3.2582   -1.0503    0.7107 C   0  0  0  0  0  0  0  0  0  0  0  0
    4.5571   -0.2579    0.5993 C   0  0  0  0  0  0  0  0  0  0  0  0
    2.8404   -2.0461   -1.5144 C   0  0  0  0  0  0  0  0  0  0  0  0
    3.1953   -2.8829   -2.2320 N   0  0  0  0  0  0  0  0  0  0  0  0
    0.9181   -1.1937   -0.2401 C   0  0  0  0  0  0  0  0  0  0  0  0
    0.5308   -2.4473    0.2247 C   0  0  0  0  0  0  0  0  0  0  0  0
   -0.7768   -2.6915    0.6349 C   0  0  0  0  0  0  0  0  0  0  0  0
   -1.7351   -1.6867    0.5846 C   0  0  0  0  0  0  0  0  0  0  0  0
   -3.0321   -1.8429    0.9678 O   0  0  0  0  0  0  0  0  0  0  0  0
   -3.4335   -3.1169    1.4223 C   0  0  0  0  0  0  0  0  0  0  0  0
   -1.3638   -0.4159    0.1070 C   0  0  0  0  0  0  0  0  0  0  0  0
   -0.0476   -0.1865   -0.2810 C   0  0  0  0  0  0  0  0  0  0  0  0
   -2.2257    0.6435    0.0750 O   0  0  0  0  0  0  0  0  0  0  0  0
   -3.5148    0.5048   -0.5395 C   0  0  0  0  0  0  0  0  0  0  0  0
   -4.6045    0.6559    0.5325 C   0  0  0  0  0  0  0  0  0  0  0  0
   -5.0098    2.1521    0.5215 C   0  0  0  0  0  0  0  0  0  0  0  0
   -4.0455    2.8323   -0.4668 C   0  0  0  0  0  0  0  0  0  0  0  0
   -3.6931    1.7145   -1.4490 C   0  0  0  0  0  0  0  0  0  0  0  0
    6.4939    1.5421    1.3167 H   0  0  0  0  0  0  0  0  0  0  0  0
    4.2012    1.7111    1.4291 H   0  0  0  0  0  0  0  0  0  0  0  0
    3.0403    2.4621   -0.8672 H   0  0  0  0  0  0  0  0  0  0  0  0
    2.1465    1.5867    0.3835 H   0  0  0  0  0  0  0  0  0  0  0  0
    3.5676    0.2578   -1.9646 H   0  0  0  0  0  0  0  0  0  0  0  0
    1.8565    0.6156   -1.9918 H   0  0  0  0  0  0  0  0  0  0  0  0
    2.6571   -0.6576    1.5379 H   0  0  0  0  0  0  0  0  0  0  0  0
    3.4620   -2.0993    0.9490 H   0  0  0  0  0  0  0  0  0  0  0  0
    5.1782   -0.4295    1.4863 H   0  0  0  0  0  0  0  0  0  0  0  0
    5.1291   -0.6223   -0.2613 H   0  0  0  0  0  0  0  0  0  0  0  0
    1.2528   -3.2603    0.2740 H   0  0  0  0  0  0  0  0  0  0  0  0
   -1.0440   -3.6781    0.9944 H   0  0  0  0  0  0  0  0  0  0  0  0
   -2.8838   -3.4157    2.3247 H   0  0  0  0  0  0  0  0  0  0  0  0
   -3.2888   -3.8798    0.6464 H   0  0  0  0  0  0  0  0  0  0  0  0
   -4.4953   -3.0367    1.6590 H   0  0  0  0  0  0  0  0  0  0  0  0
    0.1953    0.8164   -0.6209 H   0  0  0  0  0  0  0  0  0  0  0  0
   -3.5655   -0.4468   -1.0770 H   0  0  0  0  0  0  0  0  0  0  0  0
   -4.2202    0.3232    1.4963 H   0  0  0  0  0  0  0  0  0  0  0  0
   -5.4607    0.0202    0.2804 H   0  0  0  0  0  0  0  0  0  0  0  0
   -4.9657    2.6041    1.5175 H   0  0  0  0  0  0  0  0  0  0  0  0
   -6.0433    2.2529    0.1701 H   0  0  0  0  0  0  0  0  0  0  0  0
   -4.4811    3.7099   -0.9541 H   0  0  0  0  0  0  0  0  0  0  0  0
   -3.1395    3.1533    0.0561 H   0  0  0  0  0  0  0  0  0  0  0  0
   -4.5274    1.5311   -2.1400 H   0  0  0  0  0  0  0  0  0  0  0  0
   -2.7934    1.9094   -2.0396 H   0  0  0  0  0  0  0  0  0  0  0  0
  1 26  1  0  0  0  0
  2  4  1  0  0  0  0
  2  1  1  0  0  0  0
  3  2  2  0  0  0  0
  4  9  1  0  0  0  0
  4 27  1  1  0  0  0
  5 29  1  0  0  0  0
  5  4  1  0  0  0  0
  6  7  1  0  0  0  0
  6  5  1  0  0  0  0
  7 10  1  6  0  0  0
  7 12  1  0  0  0  0
  7  8  1  0  0  0  0
  8 33  1  0  0  0  0
  8 32  1  0  0  0  0
  9  8  1  0  0  0  0
  9 34  1  0  0  0  0
 11 10  3  0  0  0  0
 12 13  1  0  0  0  0
 13 36  1  0  0  0  0
 13 14  2  0  0  0  0
 14 37  1  0  0  0  0
 15 14  1  0  0  0  0
 15 16  1  0  0  0  0
 16 17  1  0  0  0  0
 17 40  1  0  0  0  0
 17 38  1  0  0  0  0
 18 15  2  0  0  0  0
 19 12  2  0  0  0  0
 19 18  1  0  0  0  0
 20 18  1  0  0  0  0
 21 20  1  0  0  0  0
 21 22  1  0  0  0  0
 22 43  1  0  0  0  0
 23 22  1  0  0  0  0
 23 45  1  0  0  0  0
 24 48  1  0  0  0  0
 24 23  1  0  0  0  0
 25 21  1  0  0  0  0
 25 24  1  0  0  0  0
 28  5  1  0  0  0  0
 30  6  1  0  0  0  0
 31  6  1  0  0  0  0
 35  9  1  0  0  0  0
 39 17  1  0  0  0  0
 41 19  1  0  0  0  0
 42 21  1  0  0  0  0
 44 22  1  0  0  0  0
 46 23  1  0  0  0  0
 47 24  1  0  0  0  0
 49 25  1  0  0  0  0
 50 25  1  0  0  0  0
M  END
