omegapdb_1v2k_16.xyz
 OpenBabel12161914463D

 61 65  0  0  0  0  0  0  0  0999 V2000
    8.3454   -1.7968   -1.7734 N   0  0  0  0  0  0  0  0  0  0  0  0
    7.1588   -1.8956   -2.3760 C   0  0  0  0  0  0  0  0  0  0  0  0
    6.0391   -1.1410   -2.0650 C   0  0  0  0  0  0  0  0  0  0  0  0
    6.1216   -0.1850   -1.0355 C   0  0  0  0  0  0  0  0  0  0  0  0
    7.3680   -0.0820   -0.3873 C   0  0  0  0  0  0  0  0  0  0  0  0
    8.4163   -0.8921   -0.7964 C   0  0  0  0  0  0  0  0  0  0  0  0
    5.0610    0.5987   -0.6612 N   0  0  0  0  0  0  0  0  0  0  0  0
    5.1348    1.3543    0.5776 C   0  0  0  0  0  0  0  0  0  0  0  0
    3.7757    1.9214    0.9651 C   0  0  0  0  0  0  0  0  0  0  0  0
    2.6856    0.8528    0.8599 C   0  0  0  0  0  0  0  0  0  0  0  0
    2.6254    0.2579   -0.5724 C   0  0  0  0  0  0  0  0  0  0  0  0
    3.8256    0.7209   -1.4066 C   0  0  0  0  0  0  0  0  0  0  0  0
    1.3450    1.4502    1.2887 C   0  0  0  0  0  0  0  0  0  0  0  0
    1.2133    2.6564    1.4500 O   0  0  0  0  0  0  0  0  0  0  0  0
    0.2930    0.5951    1.4765 N   0  0  0  0  0  0  0  0  0  0  0  0
   -1.0155    1.1680    1.7910 C   0  0  0  0  0  0  0  0  0  0  0  0
   -2.0965    0.4221    1.0166 C   0  0  0  0  0  0  0  0  0  0  0  0
   -2.0977   -1.0153    1.3490 N   0  0  0  0  0  0  0  0  0  0  0  0
   -0.8552   -1.4962    1.9668 C   0  0  0  0  0  0  0  0  0  0  0  0
    0.3687   -0.8591    1.3167 C   0  0  0  0  0  0  0  0  0  0  0  0
   -2.6756   -2.0103    0.1135 S   0  0  0  0  0  0  0  0  0  0  0  0
   -2.7584   -3.3554    0.6591 O   0  0  0  0  0  0  0  0  0  0  0  0
   -1.9148   -1.7550   -1.1048 O   0  0  0  0  0  0  0  0  0  0  0  0
   -4.3182   -1.3887   -0.1189 C   0  0  0  0  0  0  0  0  0  0  0  0
   -4.5721   -0.5151   -1.1415 C   0  0  0  0  0  0  0  0  0  0  0  0
   -5.8612    0.0733   -1.2594 C   0  0  0  0  0  0  0  0  0  0  0  0
   -6.8651   -0.2649   -0.3163 C   0  0  0  0  0  0  0  0  0  0  0  0
   -6.5628   -1.2007    0.7135 C   0  0  0  0  0  0  0  0  0  0  0  0
   -5.3149   -1.7590    0.8124 C   0  0  0  0  0  0  0  0  0  0  0  0
   -8.1480    0.3391   -0.4246 C   0  0  0  0  0  0  0  0  0  0  0  0
   -8.3997    1.2289   -1.4318 C   0  0  0  0  0  0  0  0  0  0  0  0
   -7.4102    1.5672   -2.3867 C   0  0  0  0  0  0  0  0  0  0  0  0
   -6.1705    0.9953   -2.2924 C   0  0  0  0  0  0  0  0  0  0  0  0
   -9.9688    1.9744   -1.5629 Cl  0  0  0  0  0  0  0  0  0  0  0  0
    7.0918   -2.6355   -3.1739 H   0  0  0  0  0  0  0  0  0  0  0  0
    5.1194   -1.3261   -2.6086 H   0  0  0  0  0  0  0  0  0  0  0  0
    7.5306    0.6230    0.4198 H   0  0  0  0  0  0  0  0  0  0  0  0
    9.3820   -0.8056   -0.2957 H   0  0  0  0  0  0  0  0  0  0  0  0
    5.4935    0.6904    1.3785 H   0  0  0  0  0  0  0  0  0  0  0  0
    5.8694    2.1687    0.4867 H   0  0  0  0  0  0  0  0  0  0  0  0
    3.8255    2.3142    1.9841 H   0  0  0  0  0  0  0  0  0  0  0  0
    3.5109    2.7685    0.3247 H   0  0  0  0  0  0  0  0  0  0  0  0
    2.9490    0.0461    1.5565 H   0  0  0  0  0  0  0  0  0  0  0  0
    1.7041    0.5615   -1.0829 H   0  0  0  0  0  0  0  0  0  0  0  0
    2.6121   -0.8376   -0.5179 H   0  0  0  0  0  0  0  0  0  0  0  0
    3.6801    1.7741   -1.6819 H   0  0  0  0  0  0  0  0  0  0  0  0
    3.8939    0.1678   -2.3413 H   0  0  0  0  0  0  0  0  0  0  0  0
   -1.2065    1.1394    2.8737 H   0  0  0  0  0  0  0  0  0  0  0  0
   -0.9917    2.2180    1.4988 H   0  0  0  0  0  0  0  0  0  0  0  0
   -3.0856    0.8316    1.2467 H   0  0  0  0  0  0  0  0  0  0  0  0
   -1.9184    0.5609   -0.0604 H   0  0  0  0  0  0  0  0  0  0  0  0
   -0.8856   -1.2424    3.0324 H   0  0  0  0  0  0  0  0  0  0  0  0
   -0.8255   -2.5846    1.8894 H   0  0  0  0  0  0  0  0  0  0  0  0
    0.3947   -1.1434    0.2547 H   0  0  0  0  0  0  0  0  0  0  0  0
    1.2674   -1.2548    1.7995 H   0  0  0  0  0  0  0  0  0  0  0  0
   -3.8003   -0.2663   -1.8619 H   0  0  0  0  0  0  0  0  0  0  0  0
   -7.3412   -1.4624    1.4256 H   0  0  0  0  0  0  0  0  0  0  0  0
   -5.0737   -2.4774    1.5907 H   0  0  0  0  0  0  0  0  0  0  0  0
   -8.9225    0.0919    0.2961 H   0  0  0  0  0  0  0  0  0  0  0  0
   -7.6487    2.2736   -3.1755 H   0  0  0  0  0  0  0  0  0  0  0  0
   -5.3973    1.2424   -3.0173 H   0  0  0  0  0  0  0  0  0  0  0  0
  1  6  2  0  0  0  0
  2  3  2  0  0  0  0
  2  1  1  0  0  0  0
  3  4  1  0  0  0  0
  4  7  1  0  0  0  0
  4  5  2  0  0  0  0
  5 37  1  0  0  0  0
  6  5  1  0  0  0  0
  6 38  1  0  0  0  0
  7  8  1  0  0  0  0
  8  9  1  0  0  0  0
  8 39  1  0  0  0  0
  9 41  1  0  0  0  0
 10  9  1  0  0  0  0
 10 13  1  0  0  0  0
 10 43  1  0  0  0  0
 11 45  1  0  0  0  0
 11 10  1  0  0  0  0
 12  7  1  0  0  0  0
 12 11  1  0  0  0  0
 13 14  2  0  0  0  0
 13 15  1  0  0  0  0
 15 16  1  0  0  0  0
 16 48  1  0  0  0  0
 17 50  1  0  0  0  0
 17 18  1  0  0  0  0
 17 16  1  0  0  0  0
 18 19  1  0  0  0  0
 19 52  1  0  0  0  0
 20 15  1  0  0  0  0
 20 55  1  0  0  0  0
 20 19  1  0  0  0  0
 21 22  2  0  0  0  0
 21 18  1  0  0  0  0
 23 21  2  0  0  0  0
 24 21  1  0  0  0  0
 24 29  2  0  0  0  0
 25 24  1  0  0  0  0
 26 25  2  0  0  0  0
 26 27  1  0  0  0  0
 27 28  2  0  0  0  0
 28 29  1  0  0  0  0
 28 57  1  0  0  0  0
 29 58  1  0  0  0  0
 30 27  1  0  0  0  0
 30 59  1  0  0  0  0
 31 30  2  0  0  0  0
 32 33  2  0  0  0  0
 32 31  1  0  0  0  0
 33 26  1  0  0  0  0
 34 31  1  0  0  0  0
 35  2  1  0  0  0  0
 36  3  1  0  0  0  0
 40  8  1  0  0  0  0
 42  9  1  0  0  0  0
 44 11  1  0  0  0  0
 46 12  1  0  0  0  0
 47 12  1  0  0  0  0
 49 16  1  0  0  0  0
 51 17  1  0  0  0  0
 53 19  1  0  0  0  0
 54 20  1  0  0  0  0
 56 25  1  0  0  0  0
 60 32  1  0  0  0  0
 61 33  1  0  0  0  0
M  END
