omegapdb_1v2k_02.xyz
 OpenBabel12161914463D

 61 65  0  0  0  0  0  0  0  0999 V2000
    8.2108    2.1976    0.5581 N   0  0  0  0  0  0  0  0  0  0  0  0
    7.0782    2.2415    1.2601 C   0  0  0  0  0  0  0  0  0  0  0  0
    6.0156    1.3600    1.1143 C   0  0  0  0  0  0  0  0  0  0  0  0
    6.1011    0.3328    0.1587 C   0  0  0  0  0  0  0  0  0  0  0  0
    7.2963    0.2759   -0.5769 C   0  0  0  0  0  0  0  0  0  0  0  0
    8.2893    1.2132   -0.3387 C   0  0  0  0  0  0  0  0  0  0  0  0
    5.1005   -0.6194   -0.0304 N   0  0  0  0  0  0  0  0  0  0  0  0
    3.8751   -0.5347    0.7550 C   0  0  0  0  0  0  0  0  0  0  0  0
    2.8890    0.4877    0.1766 C   0  0  0  0  0  0  0  0  0  0  0  0
    2.5417    0.1439   -1.2888 C   0  0  0  0  0  0  0  0  0  0  0  0
    3.8181   -0.1109   -2.1045 C   0  0  0  0  0  0  0  0  0  0  0  0
    4.7875   -1.0637   -1.3872 C   0  0  0  0  0  0  0  0  0  0  0  0
    1.6038   -1.0653   -1.3491 C   0  0  0  0  0  0  0  0  0  0  0  0
    1.9902   -2.1707   -1.7083 O   0  0  0  0  0  0  0  0  0  0  0  0
    0.3041   -0.8935   -0.9578 N   0  0  0  0  0  0  0  0  0  0  0  0
   -0.5194   -2.1051   -0.8969 C   0  0  0  0  0  0  0  0  0  0  0  0
   -1.8742   -1.8076   -0.2696 C   0  0  0  0  0  0  0  0  0  0  0  0
   -1.6897   -0.9886    0.9249 N   0  0  0  0  0  0  0  0  0  0  0  0
   -0.9954    0.2949    0.7547 C   0  0  0  0  0  0  0  0  0  0  0  0
   -0.3527    0.3628   -0.6340 C   0  0  0  0  0  0  0  0  0  0  0  0
   -2.7923   -1.1030    2.1575 S   0  0  0  0  0  0  0  0  0  0  0  0
   -2.2705   -0.3106    3.2563 O   0  0  0  0  0  0  0  0  0  0  0  0
   -3.1143   -2.5113    2.3080 O   0  0  0  0  0  0  0  0  0  0  0  0
   -4.2301   -0.2737    1.5238 C   0  0  0  0  0  0  0  0  0  0  0  0
   -5.0424   -0.9221    0.6341 C   0  0  0  0  0  0  0  0  0  0  0  0
   -6.1331   -0.2302    0.0414 C   0  0  0  0  0  0  0  0  0  0  0  0
   -6.3855    1.1145    0.4130 C   0  0  0  0  0  0  0  0  0  0  0  0
   -5.5360    1.7376    1.3706 C   0  0  0  0  0  0  0  0  0  0  0  0
   -4.4761    1.0615    1.9154 C   0  0  0  0  0  0  0  0  0  0  0  0
   -7.4789    1.8030   -0.1812 C   0  0  0  0  0  0  0  0  0  0  0  0
   -8.2638    1.1679   -1.1040 C   0  0  0  0  0  0  0  0  0  0  0  0
   -8.0193   -0.1729   -1.4874 C   0  0  0  0  0  0  0  0  0  0  0  0
   -6.9749   -0.8486   -0.9176 C   0  0  0  0  0  0  0  0  0  0  0  0
   -9.6020    2.0071   -1.8387 Cl  0  0  0  0  0  0  0  0  0  0  0  0
    7.0083    3.0386    1.9999 H   0  0  0  0  0  0  0  0  0  0  0  0
    5.1349    1.4941    1.7308 H   0  0  0  0  0  0  0  0  0  0  0  0
    7.4721   -0.5085   -1.3055 H   0  0  0  0  0  0  0  0  0  0  0  0
    9.2122    1.1650   -0.9164 H   0  0  0  0  0  0  0  0  0  0  0  0
    4.1253   -0.3226    1.7978 H   0  0  0  0  0  0  0  0  0  0  0  0
    3.4175   -1.5318    0.7373 H   0  0  0  0  0  0  0  0  0  0  0  0
    1.9839    0.5150    0.7943 H   0  0  0  0  0  0  0  0  0  0  0  0
    3.3353    1.4890    0.2103 H   0  0  0  0  0  0  0  0  0  0  0  0
    2.0177    0.9929   -1.7436 H   0  0  0  0  0  0  0  0  0  0  0  0
    4.3223    0.8479   -2.2806 H   0  0  0  0  0  0  0  0  0  0  0  0
    3.5558   -0.5264   -3.0830 H   0  0  0  0  0  0  0  0  0  0  0  0
    5.7083   -1.1710   -1.9634 H   0  0  0  0  0  0  0  0  0  0  0  0
    4.3254   -2.0512   -1.3127 H   0  0  0  0  0  0  0  0  0  0  0  0
   -0.6480   -2.5255   -1.9004 H   0  0  0  0  0  0  0  0  0  0  0  0
    0.0142   -2.8497   -0.2977 H   0  0  0  0  0  0  0  0  0  0  0  0
   -2.3490   -2.7450    0.0287 H   0  0  0  0  0  0  0  0  0  0  0  0
   -2.5379   -1.3032   -0.9896 H   0  0  0  0  0  0  0  0  0  0  0  0
   -0.2497    0.3734    1.5513 H   0  0  0  0  0  0  0  0  0  0  0  0
   -1.6919    1.1353    0.8730 H   0  0  0  0  0  0  0  0  0  0  0  0
   -1.1256    0.5850   -1.3844 H   0  0  0  0  0  0  0  0  0  0  0  0
    0.3539    1.1902   -0.6658 H   0  0  0  0  0  0  0  0  0  0  0  0
   -4.8634   -1.9601    0.3709 H   0  0  0  0  0  0  0  0  0  0  0  0
   -5.7375    2.7649    1.6613 H   0  0  0  0  0  0  0  0  0  0  0  0
   -3.8180    1.5225    2.6466 H   0  0  0  0  0  0  0  0  0  0  0  0
   -7.6819    2.8334    0.0969 H   0  0  0  0  0  0  0  0  0  0  0  0
   -8.6619   -0.6420   -2.2258 H   0  0  0  0  0  0  0  0  0  0  0  0
   -6.7732   -1.8802   -1.1981 H   0  0  0  0  0  0  0  0  0  0  0  0
  1  2  2  0  0  0  0
  2 35  1  0  0  0  0
  3  2  1  0  0  0  0
  3 36  1  0  0  0  0
  4  3  2  0  0  0  0
  5  6  2  0  0  0  0
  5  4  1  0  0  0  0
  6  1  1  0  0  0  0
  7  4  1  0  0  0  0
  7  8  1  0  0  0  0
  8 39  1  0  0  0  0
  9 42  1  0  0  0  0
  9  8  1  0  0  0  0
  9 41  1  0  0  0  0
 10  9  1  0  0  0  0
 11 12  1  0  0  0  0
 11 10  1  0  0  0  0
 12 47  1  0  0  0  0
 12  7  1  0  0  0  0
 13 10  1  0  0  0  0
 13 15  1  0  0  0  0
 14 13  2  0  0  0  0
 15 16  1  0  0  0  0
 15 20  1  0  0  0  0
 16 49  1  0  0  0  0
 16 17  1  0  0  0  0
 17 50  1  0  0  0  0
 17 18  1  0  0  0  0
 18 21  1  0  0  0  0
 19 53  1  0  0  0  0
 19 18  1  0  0  0  0
 19 52  1  0  0  0  0
 20 19  1  0  0  0  0
 21 23  2  0  0  0  0
 21 22  2  0  0  0  0
 24 29  1  0  0  0  0
 24 21  1  0  0  0  0
 25 24  2  0  0  0  0
 26 27  1  0  0  0  0
 26 25  1  0  0  0  0
 27 28  1  0  0  0  0
 28 57  1  0  0  0  0
 28 29  2  0  0  0  0
 29 58  1  0  0  0  0
 30 59  1  0  0  0  0
 30 27  2  0  0  0  0
 31 30  1  0  0  0  0
 32 31  2  0  0  0  0
 32 33  1  0  0  0  0
 33 26  2  0  0  0  0
 34 31  1  0  0  0  0
 37  5  1  0  0  0  0
 38  6  1  0  0  0  0
 40  8  1  0  0  0  0
 43 10  1  0  0  0  0
 44 11  1  0  0  0  0
 45 11  1  0  0  0  0
 46 12  1  0  0  0  0
 48 16  1  0  0  0  0
 51 17  1  0  0  0  0
 54 20  1  0  0  0  0
 55 20  1  0  0  0  0
 56 25  1  0  0  0  0
 60 32  1  0  0  0  0
 61 33  1  0  0  0  0
M  END
