omegapdb_1z1r_30.xyz
 OpenBabel12161914463D

 66 68  0  0  1  0  0  0  0  0999 V2000
    0.9162   -1.1702    2.0140 C   0  0  2  0  0  0  0  0  0  0  0  0
    0.3855   -2.6269    1.9714 C   0  0  0  0  0  0  0  0  0  0  0  0
   -0.8891   -2.8354    1.1966 C   0  0  0  0  0  0  0  0  0  0  0  0
   -2.1239   -2.9430    1.8463 C   0  0  0  0  0  0  0  0  0  0  0  0
   -3.3087   -2.9860    1.1309 C   0  0  0  0  0  0  0  0  0  0  0  0
   -3.2885   -2.8878   -0.2639 C   0  0  0  0  0  0  0  0  0  0  0  0
   -2.0615   -2.8904   -0.9314 C   0  0  0  0  0  0  0  0  0  0  0  0
   -0.8807   -2.8761   -0.1995 C   0  0  0  0  0  0  0  0  0  0  0  0
   -4.5023   -2.8225   -0.8820 O   0  0  0  0  0  0  0  0  0  0  0  0
   -4.6338   -2.1094   -2.1045 C   0  0  0  0  0  0  0  0  0  0  0  0
   -4.9199   -0.6165   -1.9444 C   0  0  0  0  0  0  0  0  0  0  0  0
   -3.8987    0.1802   -1.1323 C   0  0  0  0  0  0  0  0  0  0  0  0
   -4.2334    0.1901    0.3522 C   0  0  0  0  0  0  0  0  0  0  0  0
   -5.3881    0.0610    0.7314 O   0  0  0  0  0  0  0  0  0  0  0  0
   -3.2480    0.4296    1.2706 N   0  0  0  0  0  0  0  0  0  0  0  0
   -1.8030    0.4671    1.1496 C   0  0  2  0  0  0  0  0  0  0  0  0
   -1.2447    0.1852    2.5551 C   0  0  0  0  0  0  0  0  0  0  0  0
   -1.9229    0.4390    3.5363 O   0  0  0  0  0  0  0  0  0  0  0  0
    0.0600   -0.2307    2.7484 N   0  0  0  0  0  0  0  0  0  0  0  0
   -1.2614    1.8439    0.6869 C   0  0  0  0  0  0  0  0  0  0  0  0
   -1.1850    1.9448   -0.8253 C   0  0  0  0  0  0  0  0  0  0  0  0
   -0.6605    1.0699   -1.5020 O   0  0  0  0  0  0  0  0  0  0  0  0
   -1.7524    3.0472   -1.3850 N   0  0  0  0  0  0  0  0  0  0  0  0
    1.3689   -0.6227    0.6515 C   0  0  2  0  0  0  0  0  0  0  0  0
    2.0922   -1.6631   -0.0112 O   0  0  0  0  0  0  0  0  0  0  0  0
    2.2777    0.6090    0.7900 C   0  0  0  0  0  0  0  0  0  0  0  0
    3.6124    0.2082    1.2280 N   0  0  0  0  0  0  0  0  0  0  0  0
    4.7950    1.3511    1.3938 S   0  0  0  0  0  0  0  0  0  0  0  0
    4.2064    2.4559    2.1278 O   0  0  0  0  0  0  0  0  0  0  0  0
    5.9697    0.6444    1.8697 O   0  0  0  0  0  0  0  0  0  0  0  0
    5.1204    1.9103   -0.2599 C   0  0  0  0  0  0  0  0  0  0  0  0
    4.4438    3.0208   -0.7588 C   0  0  0  0  0  0  0  0  0  0  0  0
    4.6699    3.4163   -2.0734 C   0  0  0  0  0  0  0  0  0  0  0  0
    5.5642    2.7078   -2.8736 C   0  0  0  0  0  0  0  0  0  0  0  0
    6.2448    1.6076   -2.3561 C   0  0  0  0  0  0  0  0  0  0  0  0
    6.0310    1.2059   -1.0418 C   0  0  0  0  0  0  0  0  0  0  0  0
    1.8231   -1.2278    2.6305 H   0  0  0  0  0  0  0  0  0  0  0  0
    0.2452   -2.9518    3.0088 H   0  0  0  0  0  0  0  0  0  0  0  0
    1.1845   -3.2431    1.5475 H   0  0  0  0  0  0  0  0  0  0  0  0
   -2.1527   -2.9609    2.9354 H   0  0  0  0  0  0  0  0  0  0  0  0
   -4.2739   -3.0398    1.6279 H   0  0  0  0  0  0  0  0  0  0  0  0
   -2.0071   -2.9171   -2.0156 H   0  0  0  0  0  0  0  0  0  0  0  0
    0.0734   -2.8635   -0.7232 H   0  0  0  0  0  0  0  0  0  0  0  0
   -3.7459   -2.2521   -2.7326 H   0  0  0  0  0  0  0  0  0  0  0  0
   -5.4789   -2.5835   -2.6126 H   0  0  0  0  0  0  0  0  0  0  0  0
   -5.9027   -0.4723   -1.4814 H   0  0  0  0  0  0  0  0  0  0  0  0
   -4.9677   -0.2064   -2.9608 H   0  0  0  0  0  0  0  0  0  0  0  0
   -2.8716   -0.1449   -1.3240 H   0  0  0  0  0  0  0  0  0  0  0  0
   -3.9505    1.2306   -1.4518 H   0  0  0  0  0  0  0  0  0  0  0  0
   -3.5841    0.4904    2.2251 H   0  0  0  0  0  0  0  0  0  0  0  0
   -1.4591   -0.2911    0.4402 H   0  0  0  0  0  0  0  0  0  0  0  0
    0.2279   -0.2483    3.7470 H   0  0  0  0  0  0  0  0  0  0  0  0
   -1.8664    2.6417    1.1270 H   0  0  0  0  0  0  0  0  0  0  0  0
   -0.2322    1.9645    1.0497 H   0  0  0  0  0  0  0  0  0  0  0  0
   -1.6104    3.1927   -2.3734 H   0  0  0  0  0  0  0  0  0  0  0  0
   -2.0451    3.8297   -0.8234 H   0  0  0  0  0  0  0  0  0  0  0  0
    0.5074   -0.3416    0.0359 H   0  0  0  0  0  0  0  0  0  0  0  0
    2.2377   -1.3723   -0.9214 H   0  0  0  0  0  0  0  0  0  0  0  0
    2.3155    1.1397   -0.1746 H   0  0  0  0  0  0  0  0  0  0  0  0
    1.8860    1.3067    1.5350 H   0  0  0  0  0  0  0  0  0  0  0  0
    3.9404   -0.6811    0.8725 H   0  0  0  0  0  0  0  0  0  0  0  0
    3.7567    3.5662   -0.1163 H   0  0  0  0  0  0  0  0  0  0  0  0
    4.1466    4.2797   -2.4743 H   0  0  0  0  0  0  0  0  0  0  0  0
    5.7325    3.0152   -3.9032 H   0  0  0  0  0  0  0  0  0  0  0  0
    6.9483    1.0614   -2.9783 H   0  0  0  0  0  0  0  0  0  0  0  0
    6.5713    0.3644   -0.6155 H   0  0  0  0  0  0  0  0  0  0  0  0
  1 37  1  1  0  0  0
  1 19  1  0  0  0  0
  2  1  1  0  0  0  0
  2 38  1  0  0  0  0
  3  4  1  0  0  0  0
  3  2  1  0  0  0  0
  4 40  1  0  0  0  0
  5 41  1  0  0  0  0
  5  4  2  0  0  0  0
  6  5  1  0  0  0  0
  7  6  2  0  0  0  0
  7  8  1  0  0  0  0
  8  3  2  0  0  0  0
  9  6  1  0  0  0  0
 10 11  1  0  0  0  0
 10  9  1  0  0  0  0
 11 46  1  0  0  0  0
 11 12  1  0  0  0  0
 12 13  1  0  0  0  0
 13 14  2  0  0  0  0
 13 15  1  0  0  0  0
 15 50  1  0  0  0  0
 16 51  1  6  0  0  0
 16 15  1  0  0  0  0
 16 17  1  0  0  0  0
 17 19  1  0  0  0  0
 17 18  2  0  0  0  0
 19 52  1  0  0  0  0
 20 54  1  0  0  0  0
 20 53  1  0  0  0  0
 20 16  1  0  0  0  0
 21 20  1  0  0  0  0
 22 21  2  0  0  0  0
 23 21  1  0  0  0  0
 23 56  1  0  0  0  0
 24 57  1  6  0  0  0
 24 26  1  0  0  0  0
 24  1  1  0  0  0  0
 25 24  1  0  0  0  0
 26 27  1  0  0  0  0
 26 60  1  0  0  0  0
 27 28  1  0  0  0  0
 28 30  2  0  0  0  0
 28 29  2  0  0  0  0
 31 28  1  0  0  0  0
 32 31  1  0  0  0  0
 32 62  1  0  0  0  0
 33 32  2  0  0  0  0
 34 35  2  0  0  0  0
 34 33  1  0  0  0  0
 35 36  1  0  0  0  0
 36 66  1  0  0  0  0
 36 31  2  0  0  0  0
 39  2  1  0  0  0  0
 42  7  1  0  0  0  0
 43  8  1  0  0  0  0
 44 10  1  0  0  0  0
 45 10  1  0  0  0  0
 47 11  1  0  0  0  0
 48 12  1  0  0  0  0
 49 12  1  0  0  0  0
 55 23  1  0  0  0  0
 58 25  1  0  0  0  0
 59 26  1  0  0  0  0
 61 27  1  0  0  0  0
 63 33  1  0  0  0  0
 64 34  1  0  0  0  0
 65 35  1  0  0  0  0
M  END
