omegapdb_1m5f_19.xyz
 OpenBabel12161914463D

 25 25  0  0  1  0  0  0  0  0999 V2000
   -1.3336   -3.3701   -1.9495 O   0  0  0  0  0  0  0  0  0  0  0  0
   -0.6841   -2.2185   -1.7790 C   0  0  0  0  0  0  0  0  0  0  0  0
    0.3397   -1.9595   -2.3592 O   0  0  0  0  0  0  0  0  0  0  0  0
   -1.3376   -1.2668   -0.8266 C   0  0  0  0  0  0  0  0  0  0  0  0
   -2.4955   -1.5719   -0.3022 N   0  0  0  0  0  0  0  0  0  0  0  0
   -2.8349   -0.5101    0.4888 O   0  0  0  0  0  0  0  0  0  0  0  0
   -1.8725    0.4292    0.4260 C   0  0  0  0  0  0  0  0  0  0  0  0
   -0.8655    0.0024   -0.3908 C   0  0  0  0  0  0  0  0  0  0  0  0
    0.4399    0.6620   -0.7009 C   0  0  0  0  0  0  0  0  0  0  0  0
    1.4430    0.6357    0.4640 C   0  0  2  0  0  0  0  0  0  0  0  0
    2.6331    1.4644    0.2526 N   0  0  0  0  0  0  0  0  0  0  0  0
    1.9018   -0.7930    0.8282 C   0  0  0  0  0  0  0  0  0  0  0  0
    1.1681   -1.7484    0.8302 O   0  0  0  0  0  0  0  0  0  0  0  0
    3.1839   -0.8627    1.1916 O   0  0  0  0  0  0  0  0  0  0  0  0
   -2.0896    1.6672    1.2253 C   0  0  0  0  0  0  0  0  0  0  0  0
   -2.1466   -3.3716   -1.4150 H   0  0  0  0  0  0  0  0  0  0  0  0
    0.8810    0.1774   -1.5795 H   0  0  0  0  0  0  0  0  0  0  0  0
    0.2658    1.7159   -0.9539 H   0  0  0  0  0  0  0  0  0  0  0  0
    0.9377    1.0057    1.3660 H   0  0  0  0  0  0  0  0  0  0  0  0
    2.8870    1.4763   -0.7322 H   0  0  0  0  0  0  0  0  0  0  0  0
    2.4730    2.4241    0.5370 H   0  0  0  0  0  0  0  0  0  0  0  0
    3.5348    0.0499    1.0718 H   0  0  0  0  0  0  0  0  0  0  0  0
   -3.1558    1.8867    1.3062 H   0  0  0  0  0  0  0  0  0  0  0  0
   -1.6910    1.5585    2.2413 H   0  0  0  0  0  0  0  0  0  0  0  0
   -1.5824    2.5174    0.7601 H   0  0  0  0  0  0  0  0  0  0  0  0
  1  2  1  0  0  0  0
  1 16  1  0  0  0  0
  2  4  1  0  0  0  0
  3  2  2  0  0  0  0
  4  8  1  0  0  0  0
  4  5  2  0  0  0  0
  5  6  1  0  0  0  0
  7  6  1  0  0  0  0
  7 15  1  0  0  0  0
  8  7  2  0  0  0  0
  9  8  1  0  0  0  0
  9 10  1  0  0  0  0
 10 12  1  0  0  0  0
 10 19  1  1  0  0  0
 11 10  1  0  0  0  0
 11 21  1  0  0  0  0
 12 13  2  0  0  0  0
 12 14  1  0  0  0  0
 15 23  1  0  0  0  0
 15 24  1  0  0  0  0
 17  9  1  0  0  0  0
 18  9  1  0  0  0  0
 20 11  1  0  0  0  0
 22 14  1  0  0  0  0
 25 15  1  0  0  0  0
M  END
