omegapdb_2f7p_14.xyz
 OpenBabel12161914463D

 34 35  0  0  1  0  0  0  0  0999 V2000
   -1.1957   -0.8819   -0.0941 C   0  0  1  0  0  0  0  0  0  0  0  0
    0.2471   -0.8575   -0.1945 N   0  0  0  0  0  0  0  0  0  0  0  0
    0.9231    0.4267   -0.0661 C   0  0  0  0  0  0  0  0  0  0  0  0
    2.4268    0.2600   -0.0144 C   0  0  0  0  0  0  0  0  0  0  0  0
    3.2601    1.2161   -0.5927 C   0  0  0  0  0  0  0  0  0  0  0  0
    4.6443    1.1029   -0.5020 C   0  0  0  0  0  0  0  0  0  0  0  0
    5.2110    0.0275    0.1749 C   0  0  0  0  0  0  0  0  0  0  0  0
    4.3854   -0.9342    0.7517 C   0  0  0  0  0  0  0  0  0  0  0  0
    3.0022   -0.8200    0.6563 C   0  0  0  0  0  0  0  0  0  0  0  0
   -1.8231   -0.4100    1.2274 C   0  0  1  0  0  0  0  0  0  0  0  0
   -1.5000    0.9243    1.6031 O   0  0  0  0  0  0  0  0  0  0  0  0
   -3.3205   -0.4530    0.8893 C   0  0  1  0  0  0  0  0  0  0  0  0
   -4.1245    0.2425    1.8184 O   0  0  0  0  0  0  0  0  0  0  0  0
   -3.3695    0.2019   -0.5157 C   0  0  1  0  0  0  0  0  0  0  0  0
   -3.4165    1.6143   -0.3348 O   0  0  0  0  0  0  0  0  0  0  0  0
   -2.0133   -0.1252   -1.1767 C   0  0  2  0  0  0  0  0  0  0  0  0
   -2.0337   -0.9449   -2.7934 S   0  0  0  0  0  0  0  0  0  0  0  0
   -1.4757   -1.9445   -0.1649 H   0  0  0  0  0  0  0  0  0  0  0  0
    0.5027   -1.3024   -1.0734 H   0  0  0  0  0  0  0  0  0  0  0  0
    0.5671    0.8867    0.8612 H   0  0  0  0  0  0  0  0  0  0  0  0
    0.6666    1.1230   -0.8837 H   0  0  0  0  0  0  0  0  0  0  0  0
    2.8222    2.0615   -1.1204 H   0  0  0  0  0  0  0  0  0  0  0  0
    5.2799    1.8585   -0.9580 H   0  0  0  0  0  0  0  0  0  0  0  0
    6.2917   -0.0617    0.2518 H   0  0  0  0  0  0  0  0  0  0  0  0
    4.8228   -1.7786    1.2795 H   0  0  0  0  0  0  0  0  0  0  0  0
    2.3555   -1.5752    1.0974 H   0  0  0  0  0  0  0  0  0  0  0  0
   -1.5415   -1.0501    2.0684 H   0  0  0  0  0  0  0  0  0  0  0  0
   -1.8806    1.5107    0.9222 H   0  0  0  0  0  0  0  0  0  0  0  0
   -3.6835   -1.4853    0.8397 H   0  0  0  0  0  0  0  0  0  0  0  0
   -3.5080    0.7793    2.3430 H   0  0  0  0  0  0  0  0  0  0  0  0
   -4.2297   -0.1344   -1.1090 H   0  0  0  0  0  0  0  0  0  0  0  0
   -4.1148    1.7569    0.3257 H   0  0  0  0  0  0  0  0  0  0  0  0
   -1.5521    0.8458   -1.3738 H   0  0  0  0  0  0  0  0  0  0  0  0
   -2.6262   -2.0797   -2.3868 H   0  0  0  0  0  0  0  0  0  0  0  0
  1 16  1  6  0  0  0
  2  1  1  0  0  0  0
  2  3  1  0  0  0  0
  3  4  1  0  0  0  0
  3 20  1  0  0  0  0
  4  9  2  0  0  0  0
  5  6  2  0  0  0  0
  5  4  1  0  0  0  0
  6  7  1  0  0  0  0
  7 24  1  0  0  0  0
  7  8  2  0  0  0  0
  8 25  1  0  0  0  0
  9  8  1  0  0  0  0
  9 26  1  0  0  0  0
 10  1  1  6  0  0  0
 10 11  1  0  0  0  0
 10 27  1  0  0  0  0
 12 14  1  6  0  0  0
 12 10  1  0  0  0  0
 12 13  1  0  0  0  0
 13 30  1  0  0  0  0
 14 16  1  6  0  0  0
 14 15  1  0  0  0  0
 15 32  1  0  0  0  0
 16 33  1  6  0  0  0
 17 34  1  0  0  0  0
 17 16  1  0  0  0  0
 18  1  1  0  0  0  0
 19  2  1  0  0  0  0
 21  3  1  0  0  0  0
 22  5  1  0  0  0  0
 23  6  1  0  0  0  0
 28 11  1  0  0  0  0
 29 12  1  0  0  0  0
 31 14  1  0  0  0  0
M  END
