omegapdb_1v2k_08.xyz
 OpenBabel12161914463D

 61 65  0  0  0  0  0  0  0  0999 V2000
    8.8301    0.7074   -1.4874 N   0  0  0  0  0  0  0  0  0  0  0  0
    8.4694   -0.3955   -0.8316 C   0  0  0  0  0  0  0  0  0  0  0  0
    7.2563   -0.5716   -0.1798 C   0  0  0  0  0  0  0  0  0  0  0  0
    6.3125    0.4669   -0.2022 C   0  0  0  0  0  0  0  0  0  0  0  0
    6.6856    1.6334   -0.8881 C   0  0  0  0  0  0  0  0  0  0  0  0
    7.9308    1.6941   -1.4937 C   0  0  0  0  0  0  0  0  0  0  0  0
    5.0740    0.3928    0.4385 N   0  0  0  0  0  0  0  0  0  0  0  0
    3.9002    0.7615   -0.3539 C   0  0  0  0  0  0  0  0  0  0  0  0
    2.7178    1.0820    0.5513 C   0  0  0  0  0  0  0  0  0  0  0  0
    2.3779   -0.1023    1.4711 C   0  0  0  0  0  0  0  0  0  0  0  0
    3.6422   -0.5315    2.2203 C   0  0  0  0  0  0  0  0  0  0  0  0
    4.8375   -0.7620    1.2992 C   0  0  0  0  0  0  0  0  0  0  0  0
    1.7583   -1.2758    0.7051 C   0  0  0  0  0  0  0  0  0  0  0  0
    2.3631   -2.3266    0.5329 O   0  0  0  0  0  0  0  0  0  0  0  0
    0.4944   -1.1162    0.2025 N   0  0  0  0  0  0  0  0  0  0  0  0
   -0.4085   -0.0070    0.5174 C   0  0  0  0  0  0  0  0  0  0  0  0
   -1.8544   -0.4650    0.3385 C   0  0  0  0  0  0  0  0  0  0  0  0
   -2.1197   -0.9008   -1.0371 N   0  0  0  0  0  0  0  0  0  0  0  0
   -0.9857   -1.5977   -1.6800 C   0  0  0  0  0  0  0  0  0  0  0  0
   -0.0394   -2.1890   -0.6421 C   0  0  0  0  0  0  0  0  0  0  0  0
   -2.7820    0.2671   -2.0563 S   0  0  0  0  0  0  0  0  0  0  0  0
   -1.9742    1.4818   -1.9999 O   0  0  0  0  0  0  0  0  0  0  0  0
   -3.0278   -0.3768   -3.3369 O   0  0  0  0  0  0  0  0  0  0  0  0
   -4.3254    0.6093   -1.2536 C   0  0  0  0  0  0  0  0  0  0  0  0
   -5.1736   -0.4224   -0.9523 C   0  0  0  0  0  0  0  0  0  0  0  0
   -6.3994   -0.1491   -0.2854 C   0  0  0  0  0  0  0  0  0  0  0  0
   -6.7299    1.1904    0.0424 C   0  0  0  0  0  0  0  0  0  0  0  0
   -5.8231    2.2321   -0.3045 C   0  0  0  0  0  0  0  0  0  0  0  0
   -4.6430    1.9509   -0.9386 C   0  0  0  0  0  0  0  0  0  0  0  0
   -7.9548    1.4618    0.7112 C   0  0  0  0  0  0  0  0  0  0  0  0
   -8.7963    0.4327    1.0312 C   0  0  0  0  0  0  0  0  0  0  0  0
   -8.4794   -0.9106    0.7118 C   0  0  0  0  0  0  0  0  0  0  0  0
   -7.3037   -1.1844    0.0670 C   0  0  0  0  0  0  0  0  0  0  0  0
  -10.2967    0.7587    1.8552 Cl  0  0  0  0  0  0  0  0  0  0  0  0
    9.2005   -1.2039   -0.8185 H   0  0  0  0  0  0  0  0  0  0  0  0
    7.0523   -1.5141    0.3153 H   0  0  0  0  0  0  0  0  0  0  0  0
    6.0268    2.4960   -0.9166 H   0  0  0  0  0  0  0  0  0  0  0  0
    8.2182    2.5979   -2.0299 H   0  0  0  0  0  0  0  0  0  0  0  0
    4.1438    1.6382   -0.9569 H   0  0  0  0  0  0  0  0  0  0  0  0
    3.6388   -0.0451   -1.0599 H   0  0  0  0  0  0  0  0  0  0  0  0
    2.9696    1.9498    1.1715 H   0  0  0  0  0  0  0  0  0  0  0  0
    1.8568    1.3642   -0.0643 H   0  0  0  0  0  0  0  0  0  0  0  0
    1.6427    0.2302    2.2137 H   0  0  0  0  0  0  0  0  0  0  0  0
    3.4532   -1.4429    2.7960 H   0  0  0  0  0  0  0  0  0  0  0  0
    3.9043    0.2586    2.9356 H   0  0  0  0  0  0  0  0  0  0  0  0
    5.7259   -0.9068    1.9225 H   0  0  0  0  0  0  0  0  0  0  0  0
    4.6804   -1.6770    0.7106 H   0  0  0  0  0  0  0  0  0  0  0  0
   -0.2346    0.8544   -0.1418 H   0  0  0  0  0  0  0  0  0  0  0  0
   -0.2712    0.3235    1.5503 H   0  0  0  0  0  0  0  0  0  0  0  0
   -2.5496    0.3344    0.6083 H   0  0  0  0  0  0  0  0  0  0  0  0
   -2.0632   -1.3103    1.0049 H   0  0  0  0  0  0  0  0  0  0  0  0
   -0.4235   -0.8971   -2.3128 H   0  0  0  0  0  0  0  0  0  0  0  0
   -1.3980   -2.3722   -2.3325 H   0  0  0  0  0  0  0  0  0  0  0  0
   -0.5425   -2.9578   -0.0381 H   0  0  0  0  0  0  0  0  0  0  0  0
    0.8021   -2.6754   -1.1373 H   0  0  0  0  0  0  0  0  0  0  0  0
   -4.9179   -1.4466   -1.2104 H   0  0  0  0  0  0  0  0  0  0  0  0
   -6.0808    3.2575   -0.0548 H   0  0  0  0  0  0  0  0  0  0  0  0
   -3.9371    2.7302   -1.2086 H   0  0  0  0  0  0  0  0  0  0  0  0
   -8.2136    2.4864    0.9653 H   0  0  0  0  0  0  0  0  0  0  0  0
   -9.1724   -1.7001    0.9856 H   0  0  0  0  0  0  0  0  0  0  0  0
   -7.0441   -2.2108   -0.1855 H   0  0  0  0  0  0  0  0  0  0  0  0
  1  2  1  0  0  0  0
  2 35  1  0  0  0  0
  2  3  2  0  0  0  0
  3 36  1  0  0  0  0
  4  3  1  0  0  0  0
  4  7  1  0  0  0  0
  5  4  2  0  0  0  0
  6  1  2  0  0  0  0
  6  5  1  0  0  0  0
  7 12  1  0  0  0  0
  8  7  1  0  0  0  0
  8  9  1  0  0  0  0
  9 41  1  0  0  0  0
  9 10  1  0  0  0  0
 10 43  1  0  0  0  0
 10 11  1  0  0  0  0
 11 44  1  0  0  0  0
 11 45  1  0  0  0  0
 12 46  1  0  0  0  0
 12 11  1  0  0  0  0
 13 10  1  0  0  0  0
 14 13  2  0  0  0  0
 15 16  1  0  0  0  0
 15 13  1  0  0  0  0
 16 49  1  0  0  0  0
 17 16  1  0  0  0  0
 17 50  1  0  0  0  0
 17 51  1  0  0  0  0
 18 17  1  0  0  0  0
 19 18  1  0  0  0  0
 19 20  1  0  0  0  0
 20 54  1  0  0  0  0
 20 15  1  0  0  0  0
 21 22  2  0  0  0  0
 21 24  1  0  0  0  0
 21 18  1  0  0  0  0
 23 21  2  0  0  0  0
 24 25  2  0  0  0  0
 24 29  1  0  0  0  0
 25 26  1  0  0  0  0
 26 27  2  0  0  0  0
 26 33  1  0  0  0  0
 27 30  1  0  0  0  0
 28 57  1  0  0  0  0
 28 27  1  0  0  0  0
 29 28  2  0  0  0  0
 30 59  1  0  0  0  0
 30 31  2  0  0  0  0
 31 34  1  0  0  0  0
 32 60  1  0  0  0  0
 32 31  1  0  0  0  0
 33 32  2  0  0  0  0
 37  5  1  0  0  0  0
 38  6  1  0  0  0  0
 39  8  1  0  0  0  0
 40  8  1  0  0  0  0
 42  9  1  0  0  0  0
 47 12  1  0  0  0  0
 48 16  1  0  0  0  0
 52 19  1  0  0  0  0
 53 19  1  0  0  0  0
 55 20  1  0  0  0  0
 56 25  1  0  0  0  0
 58 29  1  0  0  0  0
 61 33  1  0  0  0  0
M  END
