omegapdb_1xom_15.xyz
 OpenBabel12161914463D

 50 52  0  0  1  0  0  0  0  0999 V2000
    6.3138    2.5191   -0.5728 O   0  0  0  0  0  0  0  0  0  0  0  0
    6.0684    1.1886   -0.4678 C   0  0  0  0  0  0  0  0  0  0  0  0
    6.9826    0.4314   -0.2766 O   0  0  0  0  0  0  0  0  0  0  0  0
    4.6075    0.7644   -0.6138 C   0  0  1  0  0  0  0  0  0  0  0  0
    4.4820   -0.7611   -0.5831 C   0  0  0  0  0  0  0  0  0  0  0  0
    3.0279   -1.2067   -0.7302 C   0  0  0  0  0  0  0  0  0  0  0  0
    2.0966   -0.5614    0.3339 C   0  0  2  0  0  0  0  0  0  0  0  0
    2.2550    0.9756    0.2599 C   0  0  0  0  0  0  0  0  0  0  0  0
    3.7043    1.4172    0.4487 C   0  0  0  0  0  0  0  0  0  0  0  0
    2.5382   -0.9997    1.6842 C   0  0  0  0  0  0  0  0  0  0  0  0
    2.8675   -1.3326    2.7430 N   0  0  0  0  0  0  0  0  0  0  0  0
    0.6464   -1.0369    0.1411 C   0  0  0  0  0  0  0  0  0  0  0  0
    0.3215   -2.3540    0.4498 C   0  0  0  0  0  0  0  0  0  0  0  0
   -0.9650   -2.8501    0.2341 C   0  0  0  0  0  0  0  0  0  0  0  0
   -1.9581   -2.0281   -0.2865 C   0  0  0  0  0  0  0  0  0  0  0  0
   -3.2375   -2.4117   -0.5326 O   0  0  0  0  0  0  0  0  0  0  0  0
   -3.5689   -3.7639   -0.3035 C   0  0  0  0  0  0  0  0  0  0  0  0
   -1.6421   -0.6920   -0.5915 C   0  0  0  0  0  0  0  0  0  0  0  0
   -0.3570   -0.2166   -0.3787 C   0  0  0  0  0  0  0  0  0  0  0  0
   -2.5921    0.1369   -1.1324 O   0  0  0  0  0  0  0  0  0  0  0  0
   -3.5159    0.6671   -0.1779 C   0  0  0  0  0  0  0  0  0  0  0  0
   -4.4920    1.6006   -0.8882 C   0  0  0  0  0  0  0  0  0  0  0  0
   -5.0055    2.5699    0.2032 C   0  0  0  0  0  0  0  0  0  0  0  0
   -4.0500    2.3852    1.4123 C   0  0  0  0  0  0  0  0  0  0  0  0
   -2.8678    1.5734    0.8681 C   0  0  0  0  0  0  0  0  0  0  0  0
    5.4927    3.0031   -0.7363 H   0  0  0  0  0  0  0  0  0  0  0  0
    4.2703    1.1245   -1.6003 H   0  0  0  0  0  0  0  0  0  0  0  0
    5.0949   -1.1948   -1.3797 H   0  0  0  0  0  0  0  0  0  0  0  0
    4.9010   -1.1318    0.3585 H   0  0  0  0  0  0  0  0  0  0  0  0
    2.6479   -0.9156   -1.7166 H   0  0  0  0  0  0  0  0  0  0  0  0
    2.9475   -2.2987   -0.6737 H   0  0  0  0  0  0  0  0  0  0  0  0
    1.6053    1.4469    1.0043 H   0  0  0  0  0  0  0  0  0  0  0  0
    1.9191    1.3059   -0.7313 H   0  0  0  0  0  0  0  0  0  0  0  0
    4.0595    1.1469    1.4501 H   0  0  0  0  0  0  0  0  0  0  0  0
    3.7556    2.5121    0.3808 H   0  0  0  0  0  0  0  0  0  0  0  0
    1.0744   -3.0159    0.8759 H   0  0  0  0  0  0  0  0  0  0  0  0
   -1.1838   -3.8817    0.4833 H   0  0  0  0  0  0  0  0  0  0  0  0
   -4.6185   -3.8684   -0.5807 H   0  0  0  0  0  0  0  0  0  0  0  0
   -3.4411   -4.0344    0.7530 H   0  0  0  0  0  0  0  0  0  0  0  0
   -2.9590   -4.4347   -0.9229 H   0  0  0  0  0  0  0  0  0  0  0  0
   -0.1685    0.8260   -0.6184 H   0  0  0  0  0  0  0  0  0  0  0  0
   -4.0478   -0.1586    0.3137 H   0  0  0  0  0  0  0  0  0  0  0  0
   -3.9245    2.1445   -1.6527 H   0  0  0  0  0  0  0  0  0  0  0  0
   -5.2889    1.0527   -1.4015 H   0  0  0  0  0  0  0  0  0  0  0  0
   -6.0383    2.3472    0.4920 H   0  0  0  0  0  0  0  0  0  0  0  0
   -4.9914    3.6015   -0.1633 H   0  0  0  0  0  0  0  0  0  0  0  0
   -4.5561    1.8226    2.2058 H   0  0  0  0  0  0  0  0  0  0  0  0
   -3.7370    3.3385    1.8501 H   0  0  0  0  0  0  0  0  0  0  0  0
   -2.3195    1.0151    1.6363 H   0  0  0  0  0  0  0  0  0  0  0  0
   -2.1538    2.2328    0.3562 H   0  0  0  0  0  0  0  0  0  0  0  0
  1  2  1  0  0  0  0
  2  3  2  0  0  0  0
  4 27  1  6  0  0  0
  4  5  1  0  0  0  0
  4  2  1  0  0  0  0
  4  9  1  0  0  0  0
  5 29  1  0  0  0  0
  6 31  1  0  0  0  0
  6  5  1  0  0  0  0
  6  7  1  0  0  0  0
  7 10  1  1  0  0  0
  8  7  1  0  0  0  0
  8  9  1  0  0  0  0
  8 32  1  0  0  0  0
  9 34  1  0  0  0  0
 10 11  3  0  0  0  0
 12  7  1  0  0  0  0
 12 13  2  0  0  0  0
 13 36  1  0  0  0  0
 14 13  1  0  0  0  0
 14 37  1  0  0  0  0
 15 14  2  0  0  0  0
 16 17  1  0  0  0  0
 16 15  1  0  0  0  0
 17 39  1  0  0  0  0
 18 19  2  0  0  0  0
 18 15  1  0  0  0  0
 19 12  1  0  0  0  0
 20 18  1  0  0  0  0
 20 21  1  0  0  0  0
 21 42  1  0  0  0  0
 21 25  1  0  0  0  0
 22 21  1  0  0  0  0
 22 23  1  0  0  0  0
 23 45  1  0  0  0  0
 23 24  1  0  0  0  0
 24 48  1  0  0  0  0
 24 47  1  0  0  0  0
 25 24  1  0  0  0  0
 25 49  1  0  0  0  0
 26  1  1  0  0  0  0
 28  5  1  0  0  0  0
 30  6  1  0  0  0  0
 33  8  1  0  0  0  0
 35  9  1  0  0  0  0
 38 17  1  0  0  0  0
 40 17  1  0  0  0  0
 41 19  1  0  0  0  0
 43 22  1  0  0  0  0
 44 22  1  0  0  0  0
 46 23  1  0  0  0  0
 50 25  1  0  0  0  0
M  END
