omegapdb_1z1r_04.xyz
 OpenBabel12161914463D

 66 68  0  0  1  0  0  0  0  0999 V2000
    0.7094   -0.3171   -1.2175 C   0  0  2  0  0  0  0  0  0  0  0  0
    0.2273   -1.3380   -2.2663 C   0  0  0  0  0  0  0  0  0  0  0  0
   -0.9969   -2.1069   -1.8129 C   0  0  0  0  0  0  0  0  0  0  0  0
   -0.9862   -2.8480   -0.6283 C   0  0  0  0  0  0  0  0  0  0  0  0
   -2.1389   -3.4541   -0.1434 C   0  0  0  0  0  0  0  0  0  0  0  0
   -3.3314   -3.3401   -0.8583 C   0  0  0  0  0  0  0  0  0  0  0  0
   -3.3414   -2.6783   -2.0852 C   0  0  0  0  0  0  0  0  0  0  0  0
   -2.1891   -2.0524   -2.5414 C   0  0  0  0  0  0  0  0  0  0  0  0
   -4.5149   -3.8723   -0.4259 O   0  0  0  0  0  0  0  0  0  0  0  0
   -4.8834   -3.6999    0.9385 C   0  0  0  0  0  0  0  0  0  0  0  0
   -5.5100   -2.3395    1.2401 C   0  0  0  0  0  0  0  0  0  0  0  0
   -4.5771   -1.1375    1.1132 C   0  0  0  0  0  0  0  0  0  0  0  0
   -3.5224   -1.1017    2.2152 C   0  0  0  0  0  0  0  0  0  0  0  0
   -3.5662   -1.8592    3.1728 O   0  0  0  0  0  0  0  0  0  0  0  0
   -2.5324   -0.1602    2.1208 N   0  0  0  0  0  0  0  0  0  0  0  0
   -2.1754    0.6738    0.9955 C   0  0  2  0  0  0  0  0  0  0  0  0
   -0.7110    0.3733    0.6420 C   0  0  0  0  0  0  0  0  0  0  0  0
    0.0922    0.0691    1.5145 O   0  0  0  0  0  0  0  0  0  0  0  0
   -0.3958    0.4439   -0.6741 N   0  0  0  0  0  0  0  0  0  0  0  0
   -2.3557    2.1637    1.3067 C   0  0  0  0  0  0  0  0  0  0  0  0
   -2.3162    3.0134    0.0455 C   0  0  0  0  0  0  0  0  0  0  0  0
   -2.2876    2.5326   -1.0817 O   0  0  0  0  0  0  0  0  0  0  0  0
   -2.3231    4.3545    0.2484 N   0  0  0  0  0  0  0  0  0  0  0  0
    1.7840    0.6057   -1.7849 C   0  0  2  0  0  0  0  0  0  0  0  0
    2.8193   -0.2154   -2.2736 O   0  0  0  0  0  0  0  0  0  0  0  0
    2.3074    1.5761   -0.7188 C   0  0  0  0  0  0  0  0  0  0  0  0
    3.4856    2.2823   -1.2532 N   0  0  0  0  0  0  0  0  0  0  0  0
    4.3758    3.1891   -0.1587 S   0  0  0  0  0  0  0  0  0  0  0  0
    3.5049    3.6484    0.9122 O   0  0  0  0  0  0  0  0  0  0  0  0
    5.1409    4.1244   -0.9653 O   0  0  0  0  0  0  0  0  0  0  0  0
    5.4722    1.9720    0.5086 C   0  0  0  0  0  0  0  0  0  0  0  0
    5.1681    1.3755    1.7278 C   0  0  0  0  0  0  0  0  0  0  0  0
    6.0083    0.3825    2.2207 C   0  0  0  0  0  0  0  0  0  0  0  0
    7.1391    0.0031    1.4994 C   0  0  0  0  0  0  0  0  0  0  0  0
    7.4367    0.6206    0.2863 C   0  0  0  0  0  0  0  0  0  0  0  0
    6.6045    1.6164   -0.2159 C   0  0  0  0  0  0  0  0  0  0  0  0
    1.1524   -0.8484   -0.3670 H   0  0  0  0  0  0  0  0  0  0  0  0
   -0.0074   -0.8082   -3.2005 H   0  0  0  0  0  0  0  0  0  0  0  0
    1.0571   -2.0164   -2.4975 H   0  0  0  0  0  0  0  0  0  0  0  0
   -0.0656   -2.9478   -0.0544 H   0  0  0  0  0  0  0  0  0  0  0  0
   -2.1077   -4.0194    0.7849 H   0  0  0  0  0  0  0  0  0  0  0  0
   -4.2771   -2.6237   -2.6371 H   0  0  0  0  0  0  0  0  0  0  0  0
   -2.2199   -1.5058   -3.4823 H   0  0  0  0  0  0  0  0  0  0  0  0
   -4.0333   -3.8746    1.6082 H   0  0  0  0  0  0  0  0  0  0  0  0
   -5.6233   -4.4839    1.1218 H   0  0  0  0  0  0  0  0  0  0  0  0
   -5.8840   -2.3759    2.2700 H   0  0  0  0  0  0  0  0  0  0  0  0
   -6.3696   -2.1995    0.5757 H   0  0  0  0  0  0  0  0  0  0  0  0
   -5.1636   -0.2097    1.1748 H   0  0  0  0  0  0  0  0  0  0  0  0
   -4.0944   -1.1261    0.1305 H   0  0  0  0  0  0  0  0  0  0  0  0
   -1.7965   -0.2706    2.8102 H   0  0  0  0  0  0  0  0  0  0  0  0
   -2.8112    0.4382    0.1391 H   0  0  0  0  0  0  0  0  0  0  0  0
   -1.0764    0.8614   -1.2985 H   0  0  0  0  0  0  0  0  0  0  0  0
   -3.3272    2.2973    1.7982 H   0  0  0  0  0  0  0  0  0  0  0  0
   -1.5909    2.4956    2.0188 H   0  0  0  0  0  0  0  0  0  0  0  0
   -2.4173    4.7599    1.1651 H   0  0  0  0  0  0  0  0  0  0  0  0
   -2.3627    4.9572   -0.5592 H   0  0  0  0  0  0  0  0  0  0  0  0
    1.3393    1.1942   -2.6111 H   0  0  0  0  0  0  0  0  0  0  0  0
    3.6134    0.3399   -2.3088 H   0  0  0  0  0  0  0  0  0  0  0  0
    1.5291    2.2821   -0.4120 H   0  0  0  0  0  0  0  0  0  0  0  0
    2.6199    1.0181    0.1711 H   0  0  0  0  0  0  0  0  0  0  0  0
    3.2865    2.8898   -2.0477 H   0  0  0  0  0  0  0  0  0  0  0  0
    4.2888    1.6998    2.2781 H   0  0  0  0  0  0  0  0  0  0  0  0
    5.7798   -0.0961    3.1688 H   0  0  0  0  0  0  0  0  0  0  0  0
    7.7922   -0.7762    1.8853 H   0  0  0  0  0  0  0  0  0  0  0  0
    8.3221    0.3260   -0.2705 H   0  0  0  0  0  0  0  0  0  0  0  0
    6.8262    2.1229   -1.1514 H   0  0  0  0  0  0  0  0  0  0  0  0
  1 19  1  0  0  0  0
  1 37  1  1  0  0  0
  2  3  1  0  0  0  0
  2  1  1  0  0  0  0
  3  4  2  0  0  0  0
  4  5  1  0  0  0  0
  4 40  1  0  0  0  0
  5 41  1  0  0  0  0
  6  9  1  0  0  0  0
  6  5  2  0  0  0  0
  7  6  1  0  0  0  0
  8  7  2  0  0  0  0
  8  3  1  0  0  0  0
  9 10  1  0  0  0  0
 10 45  1  0  0  0  0
 10 11  1  0  0  0  0
 10 44  1  0  0  0  0
 11 46  1  0  0  0  0
 12 48  1  0  0  0  0
 12 11  1  0  0  0  0
 12 13  1  0  0  0  0
 13 14  2  0  0  0  0
 15 13  1  0  0  0  0
 15 50  1  0  0  0  0
 16 51  1  6  0  0  0
 16 20  1  0  0  0  0
 16 15  1  0  0  0  0
 17 16  1  0  0  0  0
 17 18  2  0  0  0  0
 19 17  1  0  0  0  0
 20 53  1  0  0  0  0
 20 54  1  0  0  0  0
 21 23  1  0  0  0  0
 21 20  1  0  0  0  0
 22 21  2  0  0  0  0
 23 55  1  0  0  0  0
 24 57  1  6  0  0  0
 24  1  1  0  0  0  0
 24 26  1  0  0  0  0
 25 24  1  0  0  0  0
 26 59  1  0  0  0  0
 26 60  1  0  0  0  0
 27 26  1  0  0  0  0
 27 28  1  0  0  0  0
 28 31  1  0  0  0  0
 28 29  2  0  0  0  0
 30 28  2  0  0  0  0
 31 32  2  0  0  0  0
 32 33  1  0  0  0  0
 32 62  1  0  0  0  0
 33 63  1  0  0  0  0
 34 64  1  0  0  0  0
 34 33  2  0  0  0  0
 35 34  1  0  0  0  0
 36 35  2  0  0  0  0
 36 31  1  0  0  0  0
 38  2  1  0  0  0  0
 39  2  1  0  0  0  0
 42  7  1  0  0  0  0
 43  8  1  0  0  0  0
 47 11  1  0  0  0  0
 49 12  1  0  0  0  0
 52 19  1  0  0  0  0
 56 23  1  0  0  0  0
 58 25  1  0  0  0  0
 61 27  1  0  0  0  0
 65 35  1  0  0  0  0
 66 36  1  0  0  0  0
M  END
