omegapdb_1qxw_19.xyz
 OpenBabel12161914463D

 36 36  0  0  1  0  0  0  0  0999 V2000
    2.9405   -0.1234   -1.6395 C   0  0  0  0  0  0  0  0  0  0  0  0
    4.2062    0.5330   -1.1621 C   0  0  0  0  0  0  0  0  0  0  0  0
    3.3695   -0.2545   -0.2046 C   0  0  0  0  0  0  0  0  0  0  0  0
    2.6319    0.4901    0.7924 N   0  0  0  0  0  0  0  0  0  0  0  0
    1.8747   -0.3535    1.7097 C   0  0  0  0  0  0  0  0  0  0  0  0
    0.5264   -0.8611    1.1719 C   0  0  0  0  0  0  0  0  0  0  0  0
   -0.4807    0.2938    0.9375 C   0  0  1  0  0  0  0  0  0  0  0  0
   -0.0595    1.0002   -0.2745 N   0  0  0  0  0  0  0  0  0  0  0  0
   -1.8893   -0.2933    0.7870 C   0  0  0  0  0  0  0  0  0  0  0  0
   -2.9675    0.7259    0.3901 C   0  0  0  0  0  0  0  0  0  0  0  0
   -3.2110    0.8337   -1.1225 C   0  0  0  0  0  0  0  0  0  0  0  0
   -3.9730   -0.3585   -1.6995 C   0  0  0  0  0  0  0  0  0  0  0  0
    0.6582   -1.6076   -0.0211 O   0  0  0  0  0  0  0  0  0  0  0  0
    0.0697   -1.7333    2.1760 O   0  0  0  0  0  0  0  0  0  0  0  0
    2.0801    0.5145   -1.8262 H   0  0  0  0  0  0  0  0  0  0  0  0
    3.0199   -1.0009   -2.2762 H   0  0  0  0  0  0  0  0  0  0  0  0
    4.2048    1.6138   -1.0469 H   0  0  0  0  0  0  0  0  0  0  0  0
    5.1587    0.1170   -1.4793 H   0  0  0  0  0  0  0  0  0  0  0  0
    3.7458   -1.2307    0.1093 H   0  0  0  0  0  0  0  0  0  0  0  0
    3.2916    1.0460    1.3298 H   0  0  0  0  0  0  0  0  0  0  0  0
    2.4330   -1.2556    1.9922 H   0  0  0  0  0  0  0  0  0  0  0  0
    1.6667    0.2076    2.6274 H   0  0  0  0  0  0  0  0  0  0  0  0
   -0.4675    0.9503    1.8235 H   0  0  0  0  0  0  0  0  0  0  0  0
    0.8551    1.4164   -0.1029 H   0  0  0  0  0  0  0  0  0  0  0  0
   -0.7009    1.7615   -0.4763 H   0  0  0  0  0  0  0  0  0  0  0  0
   -2.1535   -0.7669    1.7397 H   0  0  0  0  0  0  0  0  0  0  0  0
   -1.8459   -1.1007    0.0444 H   0  0  0  0  0  0  0  0  0  0  0  0
   -2.7148    1.7121    0.8052 H   0  0  0  0  0  0  0  0  0  0  0  0
   -3.9183    0.4473    0.8632 H   0  0  0  0  0  0  0  0  0  0  0  0
   -2.2539    0.9297   -1.6493 H   0  0  0  0  0  0  0  0  0  0  0  0
   -3.7732    1.7527   -1.3259 H   0  0  0  0  0  0  0  0  0  0  0  0
   -4.9498   -0.4740   -1.2159 H   0  0  0  0  0  0  0  0  0  0  0  0
   -4.1440   -0.2333   -2.7734 H   0  0  0  0  0  0  0  0  0  0  0  0
   -3.4244   -1.2973   -1.5622 H   0  0  0  0  0  0  0  0  0  0  0  0
    0.5634   -0.9508   -0.7361 H   0  0  0  0  0  0  0  0  0  0  0  0
   -0.3691   -2.4503    1.7023 H   0  0  0  0  0  0  0  0  0  0  0  0
  1  2  1  0  0  0  0
  1  3  1  0  0  0  0
  2 17  1  0  0  0  0
  2  3  1  0  0  0  0
  3 19  1  0  0  0  0
  3  4  1  0  0  0  0
  4 20  1  0  0  0  0
  4  5  1  0  0  0  0
  5 21  1  0  0  0  0
  5 22  1  0  0  0  0
  6  5  1  0  0  0  0
  6 14  1  0  0  0  0
  7  6  1  0  0  0  0
  7 23  1  1  0  0  0
  8 24  1  0  0  0  0
  8  7  1  0  0  0  0
  9  7  1  0  0  0  0
  9 26  1  0  0  0  0
 10  9  1  0  0  0  0
 10 28  1  0  0  0  0
 10 29  1  0  0  0  0
 11 10  1  0  0  0  0
 12 34  1  0  0  0  0
 12 32  1  0  0  0  0
 12 11  1  0  0  0  0
 13  6  1  0  0  0  0
 15  1  1  0  0  0  0
 16  1  1  0  0  0  0
 18  2  1  0  0  0  0
 25  8  1  0  0  0  0
 27  9  1  0  0  0  0
 30 11  1  0  0  0  0
 31 11  1  0  0  0  0
 33 12  1  0  0  0  0
 35 13  1  0  0  0  0
 36 14  1  0  0  0  0
M  END
