omegapdb_1m5f_10.xyz
 OpenBabel12161914463D

 25 25  0  0  1  0  0  0  0  0999 V2000
   -1.6031   -3.8114   -0.6252 O   0  0  0  0  0  0  0  0  0  0  0  0
   -0.7998   -2.7501   -0.7113 C   0  0  0  0  0  0  0  0  0  0  0  0
    0.3582   -2.8367   -1.0345 O   0  0  0  0  0  0  0  0  0  0  0  0
   -1.4427   -1.4465   -0.3616 C   0  0  0  0  0  0  0  0  0  0  0  0
   -2.6742   -1.4427    0.0794 N   0  0  0  0  0  0  0  0  0  0  0  0
   -2.9690   -0.1365    0.3522 O   0  0  0  0  0  0  0  0  0  0  0  0
   -1.9081    0.6393    0.0621 C   0  0  0  0  0  0  0  0  0  0  0  0
   -0.8866   -0.1342   -0.4082 C   0  0  0  0  0  0  0  0  0  0  0  0
    0.5040    0.2820   -0.7719 C   0  0  0  0  0  0  0  0  0  0  0  0
    1.4493    0.1966    0.4414 C   0  0  2  0  0  0  0  0  0  0  0  0
    1.0045    1.0723    1.5162 N   0  0  0  0  0  0  0  0  0  0  0  0
    2.8685    0.5317    0.0028 C   0  0  0  0  0  0  0  0  0  0  0  0
    3.4690    1.5278    0.3330 O   0  0  0  0  0  0  0  0  0  0  0  0
    3.3923   -0.3833   -0.8315 O   0  0  0  0  0  0  0  0  0  0  0  0
   -2.0313    2.1003    0.3161 C   0  0  0  0  0  0  0  0  0  0  0  0
   -2.4849   -3.5286   -0.3264 H   0  0  0  0  0  0  0  0  0  0  0  0
    0.8872   -0.3630   -1.5649 H   0  0  0  0  0  0  0  0  0  0  0  0
    0.5017    1.3136   -1.1491 H   0  0  0  0  0  0  0  0  0  0  0  0
    1.4382   -0.8450    0.7796 H   0  0  0  0  0  0  0  0  0  0  0  0
    1.4948    1.9588    1.4160 H   0  0  0  0  0  0  0  0  0  0  0  0
    1.2990    0.6914    2.4098 H   0  0  0  0  0  0  0  0  0  0  0  0
    4.2759   -0.0569   -1.0705 H   0  0  0  0  0  0  0  0  0  0  0  0
   -1.7477    2.6776   -0.5702 H   0  0  0  0  0  0  0  0  0  0  0  0
   -1.3422    2.3876    1.1164 H   0  0  0  0  0  0  0  0  0  0  0  0
   -3.0529    2.3561    0.6000 H   0  0  0  0  0  0  0  0  0  0  0  0
  1 16  1  0  0  0  0
  2  1  1  0  0  0  0
  2  4  1  0  0  0  0
  3  2  2  0  0  0  0
  4  5  2  0  0  0  0
  5  6  1  0  0  0  0
  7 15  1  0  0  0  0
  7  6  1  0  0  0  0
  8  4  1  0  0  0  0
  8  7  2  0  0  0  0
  9  8  1  0  0  0  0
  9 10  1  0  0  0  0
 10 19  1  1  0  0  0
 10 11  1  0  0  0  0
 11 21  1  0  0  0  0
 12 13  2  0  0  0  0
 12 10  1  0  0  0  0
 14 12  1  0  0  0  0
 15 25  1  0  0  0  0
 15 24  1  0  0  0  0
 17  9  1  0  0  0  0
 18  9  1  0  0  0  0
 20 11  1  0  0  0  0
 22 14  1  0  0  0  0
 23 15  1  0  0  0  0
M  END
