omegapdb_1gs5_21.xyz
 OpenBabel12161914463D

 24 23  0  0  1  0  0  0  0  0999 V2000
   -0.2728   -0.5658   -0.2884 C   0  0  2  0  0  0  0  0  0  0  0  0
   -1.3129   -1.3574    0.5269 C   0  0  0  0  0  0  0  0  0  0  0  0
   -2.4907   -1.3613    0.2790 O   0  0  0  0  0  0  0  0  0  0  0  0
   -0.7935   -2.0507    1.5444 O   0  0  0  0  0  0  0  0  0  0  0  0
    0.4884    0.4673    0.5844 C   0  0  0  0  0  0  0  0  0  0  0  0
    1.9971    0.4155    0.3652 C   0  0  0  0  0  0  0  0  0  0  0  0
    2.6121   -0.8565    0.9187 C   0  0  0  0  0  0  0  0  0  0  0  0
    1.9879   -1.7382    1.4678 O   0  0  0  0  0  0  0  0  0  0  0  0
    3.9370   -0.9877    0.7818 O   0  0  0  0  0  0  0  0  0  0  0  0
   -0.8084   -0.0042   -1.5052 N   0  0  0  0  0  0  0  0  0  0  0  0
   -1.9211    0.7891   -1.6823 C   0  0  0  0  0  0  0  0  0  0  0  0
   -2.3852    0.9251   -2.8004 O   0  0  0  0  0  0  0  0  0  0  0  0
   -2.5067    1.5427   -0.5078 C   0  0  0  0  0  0  0  0  0  0  0  0
    0.4512   -1.3214   -0.6209 H   0  0  0  0  0  0  0  0  0  0  0  0
    0.1840   -1.9648    1.5627 H   0  0  0  0  0  0  0  0  0  0  0  0
    0.1233    1.4700    0.3466 H   0  0  0  0  0  0  0  0  0  0  0  0
    0.2801    0.2915    1.6452 H   0  0  0  0  0  0  0  0  0  0  0  0
    2.2365    0.4844   -0.7049 H   0  0  0  0  0  0  0  0  0  0  0  0
    2.4812    1.2692    0.8544 H   0  0  0  0  0  0  0  0  0  0  0  0
    4.3081   -0.2230    0.3182 H   0  0  0  0  0  0  0  0  0  0  0  0
   -0.5692   -0.4788   -2.3654 H   0  0  0  0  0  0  0  0  0  0  0  0
   -2.2297    2.5980   -0.6092 H   0  0  0  0  0  0  0  0  0  0  0  0
   -2.2011    1.1787    0.4739 H   0  0  0  0  0  0  0  0  0  0  0  0
   -3.5955    1.4782   -0.5845 H   0  0  0  0  0  0  0  0  0  0  0  0
  1 14  1  6  0  0  0
  1  2  1  0  0  0  0
  1  5  1  0  0  0  0
  2  4  1  0  0  0  0
  3  2  2  0  0  0  0
  4 15  1  0  0  0  0
  5 17  1  0  0  0  0
  6  5  1  0  0  0  0
  6 19  1  0  0  0  0
  6  7  1  0  0  0  0
  7  8  2  0  0  0  0
  9  7  1  0  0  0  0
 10  1  1  0  0  0  0
 11 10  1  0  0  0  0
 11 13  1  0  0  0  0
 12 11  2  0  0  0  0
 13 23  1  0  0  0  0
 16  5  1  0  0  0  0
 18  6  1  0  0  0  0
 20  9  1  0  0  0  0
 21 10  1  0  0  0  0
 22 13  1  0  0  0  0
 24 13  1  0  0  0  0
M  END
