omegapdb_1xom_18.xyz
 OpenBabel12161914463D

 50 52  0  0  1  0  0  0  0  0999 V2000
    5.9823    2.8400   -0.0210 O   0  0  0  0  0  0  0  0  0  0  0  0
    5.8030    1.5791   -0.4907 C   0  0  0  0  0  0  0  0  0  0  0  0
    6.7514    0.9458   -0.8702 O   0  0  0  0  0  0  0  0  0  0  0  0
    4.3664    1.0646   -0.4758 C   0  0  1  0  0  0  0  0  0  0  0  0
    4.2502   -0.2645   -1.2225 C   0  0  0  0  0  0  0  0  0  0  0  0
    2.8062   -0.7640   -1.2295 C   0  0  0  0  0  0  0  0  0  0  0  0
    2.2170   -0.8982    0.2032 C   0  0  2  0  0  0  0  0  0  0  0  0
    2.3914    0.4368    0.9782 C   0  0  0  0  0  0  0  0  0  0  0  0
    3.8399    0.9269    0.9638 C   0  0  0  0  0  0  0  0  0  0  0  0
    3.0155   -1.9236    0.9176 C   0  0  0  0  0  0  0  0  0  0  0  0
    3.6515   -2.7096    1.4820 N   0  0  0  0  0  0  0  0  0  0  0  0
    0.7352   -1.3108    0.1462 C   0  0  0  0  0  0  0  0  0  0  0  0
    0.2660   -2.4947    0.7037 C   0  0  0  0  0  0  0  0  0  0  0  0
   -1.0824   -2.8431    0.6204 C   0  0  0  0  0  0  0  0  0  0  0  0
   -1.9952   -2.0096   -0.0142 C   0  0  0  0  0  0  0  0  0  0  0  0
   -3.3257   -2.2522   -0.1249 O   0  0  0  0  0  0  0  0  0  0  0  0
   -3.8158   -3.4596    0.4173 C   0  0  0  0  0  0  0  0  0  0  0  0
   -1.5304   -0.8085   -0.5807 C   0  0  0  0  0  0  0  0  0  0  0  0
   -0.1884   -0.4756   -0.4901 C   0  0  0  0  0  0  0  0  0  0  0  0
   -2.4086    0.0113   -1.2407 O   0  0  0  0  0  0  0  0  0  0  0  0
   -2.8229    1.1283   -0.4569 C   0  0  0  0  0  0  0  0  0  0  0  0
   -3.7019    2.0539   -1.2944 C   0  0  0  0  0  0  0  0  0  0  0  0
   -4.5699    2.8303   -0.2740 C   0  0  0  0  0  0  0  0  0  0  0  0
   -4.3371    2.1278    1.0894 C   0  0  0  0  0  0  0  0  0  0  0  0
   -3.7181    0.7735    0.7281 C   0  0  0  0  0  0  0  0  0  0  0  0
    5.1326    3.2346    0.2208 H   0  0  0  0  0  0  0  0  0  0  0  0
    3.7476    1.8149   -0.9946 H   0  0  0  0  0  0  0  0  0  0  0  0
    4.6128   -0.1454   -2.2481 H   0  0  0  0  0  0  0  0  0  0  0  0
    4.9085   -0.9995   -0.7475 H   0  0  0  0  0  0  0  0  0  0  0  0
    2.1846   -0.0609   -1.7969 H   0  0  0  0  0  0  0  0  0  0  0  0
    2.7310   -1.7300   -1.7385 H   0  0  0  0  0  0  0  0  0  0  0  0
    1.7429    1.1917    0.5183 H   0  0  0  0  0  0  0  0  0  0  0  0
    2.0386    0.3024    2.0054 H   0  0  0  0  0  0  0  0  0  0  0  0
    3.9038    1.8878    1.4906 H   0  0  0  0  0  0  0  0  0  0  0  0
    4.4779    0.2242    1.5131 H   0  0  0  0  0  0  0  0  0  0  0  0
    0.9500   -3.1683    1.2144 H   0  0  0  0  0  0  0  0  0  0  0  0
   -1.4121   -3.7778    1.0585 H   0  0  0  0  0  0  0  0  0  0  0  0
   -4.8918   -3.4549    0.2407 H   0  0  0  0  0  0  0  0  0  0  0  0
   -3.6255   -3.5190    1.4972 H   0  0  0  0  0  0  0  0  0  0  0  0
   -3.3695   -4.3321   -0.0785 H   0  0  0  0  0  0  0  0  0  0  0  0
    0.1304    0.4621   -0.9433 H   0  0  0  0  0  0  0  0  0  0  0  0
   -1.9289    1.6614   -0.0958 H   0  0  0  0  0  0  0  0  0  0  0  0
   -3.1160    2.7002   -1.9551 H   0  0  0  0  0  0  0  0  0  0  0  0
   -4.3240    1.4162   -1.9322 H   0  0  0  0  0  0  0  0  0  0  0  0
   -5.6248    2.7886   -0.5641 H   0  0  0  0  0  0  0  0  0  0  0  0
   -4.2964    3.8891   -0.2192 H   0  0  0  0  0  0  0  0  0  0  0  0
   -5.2550    2.0296    1.6780 H   0  0  0  0  0  0  0  0  0  0  0  0
   -3.6309    2.7080    1.6965 H   0  0  0  0  0  0  0  0  0  0  0  0
   -3.1722    0.2960    1.5502 H   0  0  0  0  0  0  0  0  0  0  0  0
   -4.4932    0.0771    0.3915 H   0  0  0  0  0  0  0  0  0  0  0  0
  1 26  1  0  0  0  0
  2  4  1  0  0  0  0
  2  1  1  0  0  0  0
  3  2  2  0  0  0  0
  4 27  1  6  0  0  0
  4  9  1  0  0  0  0
  5 29  1  0  0  0  0
  5  4  1  0  0  0  0
  6  5  1  0  0  0  0
  6  7  1  0  0  0  0
  7 10  1  1  0  0  0
  7  8  1  0  0  0  0
  8 33  1  0  0  0  0
  9  8  1  0  0  0  0
  9 34  1  0  0  0  0
  9 35  1  0  0  0  0
 10 11  3  0  0  0  0
 12  7  1  0  0  0  0
 12 13  2  0  0  0  0
 13 36  1  0  0  0  0
 14 13  1  0  0  0  0
 14 37  1  0  0  0  0
 15 14  2  0  0  0  0
 16 15  1  0  0  0  0
 16 17  1  0  0  0  0
 17 39  1  0  0  0  0
 18 19  2  0  0  0  0
 18 15  1  0  0  0  0
 19 12  1  0  0  0  0
 20 18  1  0  0  0  0
 20 21  1  0  0  0  0
 21 42  1  0  0  0  0
 21 25  1  0  0  0  0
 22 21  1  0  0  0  0
 22 23  1  0  0  0  0
 23 46  1  0  0  0  0
 23 24  1  0  0  0  0
 24 47  1  0  0  0  0
 24 48  1  0  0  0  0
 25 24  1  0  0  0  0
 25 49  1  0  0  0  0
 28  5  1  0  0  0  0
 30  6  1  0  0  0  0
 31  6  1  0  0  0  0
 32  8  1  0  0  0  0
 38 17  1  0  0  0  0
 40 17  1  0  0  0  0
 41 19  1  0  0  0  0
 43 22  1  0  0  0  0
 44 22  1  0  0  0  0
 45 23  1  0  0  0  0
 50 25  1  0  0  0  0
M  END
