omegapdb_2byh_12.xyz
 OpenBabel12161914463D

 40 42  0  0  0  0  0  0  0  0999 V2000
    5.0542    2.7045    3.5401 O   0  0  0  0  0  0  0  0  0  0  0  0
    5.3306    1.9159    2.6560 C   0  0  0  0  0  0  0  0  0  0  0  0
    6.7686    1.6834    2.2448 C   0  0  0  0  0  0  0  0  0  0  0  0
    4.2490    1.1578    1.9564 C   0  0  0  0  0  0  0  0  0  0  0  0
    2.9267    1.3821    2.3455 C   0  0  0  0  0  0  0  0  0  0  0  0
    1.8696    0.7170    1.7468 C   0  0  0  0  0  0  0  0  0  0  0  0
    2.1295   -0.2024    0.7261 C   0  0  0  0  0  0  0  0  0  0  0  0
    3.4511   -0.4350    0.3273 C   0  0  0  0  0  0  0  0  0  0  0  0
    4.4985    0.2386    0.9365 C   0  0  0  0  0  0  0  0  0  0  0  0
    1.1151   -0.9299    0.0780 N   0  0  0  0  0  0  0  0  0  0  0  0
   -0.2478   -0.8269    0.2253 C   0  0  0  0  0  0  0  0  0  0  0  0
   -0.7785   -0.0285    0.9838 O   0  0  0  0  0  0  0  0  0  0  0  0
   -1.0068   -1.7894   -0.6177 C   0  0  0  0  0  0  0  0  0  0  0  0
   -0.5618   -3.0853   -0.9784 C   0  0  0  0  0  0  0  0  0  0  0  0
   -1.4998   -3.7848   -1.5831 N   0  0  0  0  0  0  0  0  0  0  0  0
   -2.5459   -2.9583   -1.6440 N   0  0  0  0  0  0  0  0  0  0  0  0
   -2.3244   -1.7332   -1.1028 C   0  0  0  0  0  0  0  0  0  0  0  0
   -3.2998   -0.6318   -1.1811 C   0  0  0  0  0  0  0  0  0  0  0  0
   -2.8834    0.6973   -1.0589 C   0  0  0  0  0  0  0  0  0  0  0  0
   -3.7680    1.7559   -1.1469 C   0  0  0  0  0  0  0  0  0  0  0  0
   -3.2029    3.3836   -0.9681 Cl  0  0  0  0  0  0  0  0  0  0  0  0
   -5.1272    1.5215   -1.3744 C   0  0  0  0  0  0  0  0  0  0  0  0
   -5.9603    2.5812   -1.4544 O   0  0  0  0  0  0  0  0  0  0  0  0
   -5.5661    0.2084   -1.5069 C   0  0  0  0  0  0  0  0  0  0  0  0
   -4.6681   -0.8470   -1.4204 C   0  0  0  0  0  0  0  0  0  0  0  0
   -5.0995   -2.1315   -1.5807 O   0  0  0  0  0  0  0  0  0  0  0  0
    7.0482    0.6332    2.3859 H   0  0  0  0  0  0  0  0  0  0  0  0
    6.9149    1.9278    1.1866 H   0  0  0  0  0  0  0  0  0  0  0  0
    7.4106    2.3178    2.8583 H   0  0  0  0  0  0  0  0  0  0  0  0
    2.7386    2.0999    3.1388 H   0  0  0  0  0  0  0  0  0  0  0  0
    0.8512    0.9009    2.0587 H   0  0  0  0  0  0  0  0  0  0  0  0
    3.6648   -1.1494   -0.4638 H   0  0  0  0  0  0  0  0  0  0  0  0
    5.5166    0.0416    0.6110 H   0  0  0  0  0  0  0  0  0  0  0  0
    1.4333   -1.5571   -0.6451 H   0  0  0  0  0  0  0  0  0  0  0  0
    0.3896   -3.5636   -0.7749 H   0  0  0  0  0  0  0  0  0  0  0  0
   -3.4327   -3.2800   -2.0034 H   0  0  0  0  0  0  0  0  0  0  0  0
   -1.8413    0.9149   -0.8705 H   0  0  0  0  0  0  0  0  0  0  0  0
   -6.8576    2.2664   -1.6268 H   0  0  0  0  0  0  0  0  0  0  0  0
   -6.6253    0.0137   -1.6853 H   0  0  0  0  0  0  0  0  0  0  0  0
   -6.0634   -2.1293   -1.6519 H   0  0  0  0  0  0  0  0  0  0  0  0
  2  1  2  0  0  0  0
  3 27  1  0  0  0  0
  3  2  1  0  0  0  0
  3 29  1  0  0  0  0
  4  5  1  0  0  0  0
  4  2  1  0  0  0  0
  5 30  1  0  0  0  0
  6 31  1  0  0  0  0
  6  5  2  0  0  0  0
  7  6  1  0  0  0  0
  8  7  2  0  0  0  0
  8  9  1  0  0  0  0
  9  4  2  0  0  0  0
 10 11  1  0  0  0  0
 10  7  1  0  0  0  0
 11 12  2  0  0  0  0
 13 11  1  0  0  0  0
 14 35  1  0  0  0  0
 14 13  1  0  0  0  0
 15 14  2  0  0  0  0
 16 15  1  0  0  0  0
 16 17  1  0  0  0  0
 17 13  2  0  0  0  0
 18 17  1  0  0  0  0
 18 19  2  0  0  0  0
 19 37  1  0  0  0  0
 20 19  1  0  0  0  0
 20 21  1  0  0  0  0
 22 20  2  0  0  0  0
 23 22  1  0  0  0  0
 24 25  2  0  0  0  0
 24 22  1  0  0  0  0
 25 18  1  0  0  0  0
 26 25  1  0  0  0  0
 28  3  1  0  0  0  0
 32  8  1  0  0  0  0
 33  9  1  0  0  0  0
 34 10  1  0  0  0  0
 36 16  1  0  0  0  0
 38 23  1  0  0  0  0
 39 24  1  0  0  0  0
 40 26  1  0  0  0  0
M  END
