omegapdb_1z1r_16.xyz
 OpenBabel12161914463D

 66 68  0  0  1  0  0  0  0  0999 V2000
    0.5758    0.7711    0.3922 C   0  0  2  0  0  0  0  0  0  0  0  0
    1.0328    0.2020   -0.9667 C   0  0  0  0  0  0  0  0  0  0  0  0
    0.2187   -1.0109   -1.3572 C   0  0  0  0  0  0  0  0  0  0  0  0
    0.3273   -2.2030   -0.6345 C   0  0  0  0  0  0  0  0  0  0  0  0
   -0.5675   -3.2446   -0.8308 C   0  0  0  0  0  0  0  0  0  0  0  0
   -1.6106   -3.0991   -1.7447 C   0  0  0  0  0  0  0  0  0  0  0  0
   -1.6773   -1.9608   -2.5471 C   0  0  0  0  0  0  0  0  0  0  0  0
   -0.7626   -0.9328   -2.3494 C   0  0  0  0  0  0  0  0  0  0  0  0
   -2.5538   -4.0881   -1.8170 O   0  0  0  0  0  0  0  0  0  0  0  0
   -3.8959   -3.7027   -1.5266 C   0  0  0  0  0  0  0  0  0  0  0  0
   -4.1313   -3.2669   -0.0801 C   0  0  0  0  0  0  0  0  0  0  0  0
   -3.8007   -1.8079    0.2310 C   0  0  0  0  0  0  0  0  0  0  0  0
   -3.9869   -1.5237    1.7169 C   0  0  0  0  0  0  0  0  0  0  0  0
   -4.3077   -2.3894    2.5109 O   0  0  0  0  0  0  0  0  0  0  0  0
   -3.7979   -0.2259    2.1489 N   0  0  0  0  0  0  0  0  0  0  0  0
   -3.0994    0.8246    1.4362 C   0  0  2  0  0  0  0  0  0  0  0  0
   -1.5738    0.6954    1.5991 C   0  0  0  0  0  0  0  0  0  0  0  0
   -1.0580    0.5487    2.6984 O   0  0  0  0  0  0  0  0  0  0  0  0
   -0.8736    0.7787    0.4381 N   0  0  0  0  0  0  0  0  0  0  0  0
   -3.5292    2.1870    1.9844 C   0  0  0  0  0  0  0  0  0  0  0  0
   -2.9399    3.3415    1.1899 C   0  0  0  0  0  0  0  0  0  0  0  0
   -2.3557    3.1816    0.1188 O   0  0  0  0  0  0  0  0  0  0  0  0
   -3.0993    4.5688    1.7330 N   0  0  0  0  0  0  0  0  0  0  0  0
    1.0890    2.2007    0.7005 C   0  0  2  0  0  0  0  0  0  0  0  0
    0.6493    3.1268   -0.2726 O   0  0  0  0  0  0  0  0  0  0  0  0
    2.6079    2.3107    0.7569 C   0  0  0  0  0  0  0  0  0  0  0  0
    3.1676    2.2690   -0.5887 N   0  0  0  0  0  0  0  0  0  0  0  0
    4.8214    2.3030   -0.7495 S   0  0  0  0  0  0  0  0  0  0  0  0
    5.0719    2.6895   -2.1278 O   0  0  0  0  0  0  0  0  0  0  0  0
    5.3967    3.0422    0.3640 O   0  0  0  0  0  0  0  0  0  0  0  0
    5.2468    0.5985   -0.5454 C   0  0  0  0  0  0  0  0  0  0  0  0
    5.8149    0.1665    0.6483 C   0  0  0  0  0  0  0  0  0  0  0  0
    6.1249   -1.1816    0.7955 C   0  0  0  0  0  0  0  0  0  0  0  0
    5.8714   -2.0765   -0.2423 C   0  0  0  0  0  0  0  0  0  0  0  0
    5.3039   -1.6271   -1.4331 C   0  0  0  0  0  0  0  0  0  0  0  0
    4.9873   -0.2812   -1.5907 C   0  0  0  0  0  0  0  0  0  0  0  0
    0.9065    0.1162    1.2057 H   0  0  0  0  0  0  0  0  0  0  0  0
    0.9199    0.9825   -1.7271 H   0  0  0  0  0  0  0  0  0  0  0  0
    2.0975   -0.0532   -0.9096 H   0  0  0  0  0  0  0  0  0  0  0  0
    1.1083   -2.3071    0.1172 H   0  0  0  0  0  0  0  0  0  0  0  0
   -0.5158   -4.1578   -0.2429 H   0  0  0  0  0  0  0  0  0  0  0  0
   -2.4521   -1.8764   -3.3058 H   0  0  0  0  0  0  0  0  0  0  0  0
   -0.8439   -0.0342   -2.9578 H   0  0  0  0  0  0  0  0  0  0  0  0
   -4.4795   -4.6011   -1.7426 H   0  0  0  0  0  0  0  0  0  0  0  0
   -4.2255   -2.9166   -2.2231 H   0  0  0  0  0  0  0  0  0  0  0  0
   -5.1903   -3.4248    0.1567 H   0  0  0  0  0  0  0  0  0  0  0  0
   -3.5668   -3.9231    0.5907 H   0  0  0  0  0  0  0  0  0  0  0  0
   -4.4482   -1.1369   -0.3514 H   0  0  0  0  0  0  0  0  0  0  0  0
   -2.7689   -1.5498   -0.0377 H   0  0  0  0  0  0  0  0  0  0  0  0
   -3.7242   -0.1837    3.1600 H   0  0  0  0  0  0  0  0  0  0  0  0
   -3.3723    0.7747    0.3780 H   0  0  0  0  0  0  0  0  0  0  0  0
   -1.3385    1.1945   -0.3596 H   0  0  0  0  0  0  0  0  0  0  0  0
   -4.6231    2.2457    1.9662 H   0  0  0  0  0  0  0  0  0  0  0  0
   -3.2092    2.2593    3.0315 H   0  0  0  0  0  0  0  0  0  0  0  0
   -2.7479    5.3708    1.2320 H   0  0  0  0  0  0  0  0  0  0  0  0
   -3.5843    4.7150    2.6037 H   0  0  0  0  0  0  0  0  0  0  0  0
    0.6888    2.4624    1.6944 H   0  0  0  0  0  0  0  0  0  0  0  0
   -0.3025    3.2812   -0.1489 H   0  0  0  0  0  0  0  0  0  0  0  0
    2.8897    3.2397    1.2662 H   0  0  0  0  0  0  0  0  0  0  0  0
    3.0239    1.4830    1.3420 H   0  0  0  0  0  0  0  0  0  0  0  0
    2.7084    2.8669   -1.2702 H   0  0  0  0  0  0  0  0  0  0  0  0
    6.0142    0.8871    1.4375 H   0  0  0  0  0  0  0  0  0  0  0  0
    6.5675   -1.5346    1.7227 H   0  0  0  0  0  0  0  0  0  0  0  0
    6.1200   -3.1281   -0.1238 H   0  0  0  0  0  0  0  0  0  0  0  0
    5.1106   -2.3266   -2.2420 H   0  0  0  0  0  0  0  0  0  0  0  0
    4.5515    0.0906   -2.5154 H   0  0  0  0  0  0  0  0  0  0  0  0
  1 19  1  0  0  0  0
  1 24  1  0  0  0  0
  1 37  1  1  0  0  0
  2 39  1  0  0  0  0
  2  1  1  0  0  0  0
  3  2  1  0  0  0  0
  3  4  2  0  0  0  0
  4 40  1  0  0  0  0
  5  4  1  0  0  0  0
  5 41  1  0  0  0  0
  6  5  2  0  0  0  0
  7  8  2  0  0  0  0
  7  6  1  0  0  0  0
  8  3  1  0  0  0  0
  9  6  1  0  0  0  0
  9 10  1  0  0  0  0
 10 11  1  0  0  0  0
 11 46  1  0  0  0  0
 11 12  1  0  0  0  0
 11 47  1  0  0  0  0
 12 13  1  0  0  0  0
 13 15  1  0  0  0  0
 13 14  2  0  0  0  0
 15 50  1  0  0  0  0
 16 51  1  6  0  0  0
 16 17  1  0  0  0  0
 16 20  1  0  0  0  0
 16 15  1  0  0  0  0
 17 18  2  0  0  0  0
 19 17  1  0  0  0  0
 20 54  1  0  0  0  0
 21 23  1  0  0  0  0
 21 20  1  0  0  0  0
 22 21  2  0  0  0  0
 23 56  1  0  0  0  0
 24 26  1  0  0  0  0
 24 57  1  1  0  0  0
 25 58  1  0  0  0  0
 25 24  1  0  0  0  0
 26 59  1  0  0  0  0
 26 60  1  0  0  0  0
 27 26  1  0  0  0  0
 28 27  1  0  0  0  0
 28 31  1  0  0  0  0
 28 30  2  0  0  0  0
 29 28  2  0  0  0  0
 31 32  2  0  0  0  0
 32 33  1  0  0  0  0
 32 62  1  0  0  0  0
 33 63  1  0  0  0  0
 34 64  1  0  0  0  0
 34 33  2  0  0  0  0
 35 34  1  0  0  0  0
 36 35  2  0  0  0  0
 36 31  1  0  0  0  0
 38  2  1  0  0  0  0
 42  7  1  0  0  0  0
 43  8  1  0  0  0  0
 44 10  1  0  0  0  0
 45 10  1  0  0  0  0
 48 12  1  0  0  0  0
 49 12  1  0  0  0  0
 52 19  1  0  0  0  0
 53 20  1  0  0  0  0
 55 23  1  0  0  0  0
 61 27  1  0  0  0  0
 65 35  1  0  0  0  0
 66 36  1  0  0  0  0
M  END
