omegapdb_1qxw_14.xyz
 OpenBabel12161914463D

 36 36  0  0  1  0  0  0  0  0999 V2000
    4.1838    1.2881   -0.7927 C   0  0  0  0  0  0  0  0  0  0  0  0
    4.0973   -0.1724   -1.1437 C   0  0  0  0  0  0  0  0  0  0  0  0
    3.7115    0.3017    0.2335 C   0  0  0  0  0  0  0  0  0  0  0  0
    2.3510    0.3073    0.6815 N   0  0  0  0  0  0  0  0  0  0  0  0
    1.6435   -0.9592    0.5771 C   0  0  0  0  0  0  0  0  0  0  0  0
    0.3412   -0.8789    1.3871 C   0  0  0  0  0  0  0  0  0  0  0  0
   -0.7481   -0.0050    0.7367 C   0  0  1  0  0  0  0  0  0  0  0  0
   -0.3143    1.3919    0.7636 N   0  0  0  0  0  0  0  0  0  0  0  0
   -1.0954   -0.4467   -0.6869 C   0  0  0  0  0  0  0  0  0  0  0  0
   -2.3771    0.1647   -1.2632 C   0  0  0  0  0  0  0  0  0  0  0  0
   -3.6665   -0.2497   -0.5526 C   0  0  0  0  0  0  0  0  0  0  0  0
   -4.9085    0.3512   -1.2053 C   0  0  0  0  0  0  0  0  0  0  0  0
    0.6574   -0.3824    2.6746 O   0  0  0  0  0  0  0  0  0  0  0  0
   -0.2058   -2.1646    1.5352 O   0  0  0  0  0  0  0  0  0  0  0  0
    3.4487    1.9563   -1.2346 H   0  0  0  0  0  0  0  0  0  0  0  0
    5.1661    1.7337   -0.6624 H   0  0  0  0  0  0  0  0  0  0  0  0
    3.3006   -0.4836   -1.8149 H   0  0  0  0  0  0  0  0  0  0  0  0
    5.0190   -0.7375   -1.2440 H   0  0  0  0  0  0  0  0  0  0  0  0
    4.4214    0.0702    1.0273 H   0  0  0  0  0  0  0  0  0  0  0  0
    1.8001    1.0692    0.2856 H   0  0  0  0  0  0  0  0  0  0  0  0
    2.2421   -1.7442    1.0513 H   0  0  0  0  0  0  0  0  0  0  0  0
    1.4513   -1.2759   -0.4578 H   0  0  0  0  0  0  0  0  0  0  0  0
   -1.6173   -0.1726    1.3929 H   0  0  0  0  0  0  0  0  0  0  0  0
   -0.2392    1.6876    1.7332 H   0  0  0  0  0  0  0  0  0  0  0  0
   -1.0114    1.9871    0.3269 H   0  0  0  0  0  0  0  0  0  0  0  0
   -0.2635   -0.1727   -1.3489 H   0  0  0  0  0  0  0  0  0  0  0  0
   -1.1756   -1.5411   -0.7067 H   0  0  0  0  0  0  0  0  0  0  0  0
   -2.4509   -0.1305   -2.3185 H   0  0  0  0  0  0  0  0  0  0  0  0
   -2.2998    1.2622   -1.2690 H   0  0  0  0  0  0  0  0  0  0  0  0
   -3.6307    0.0565    0.5008 H   0  0  0  0  0  0  0  0  0  0  0  0
   -3.7401   -1.3455   -0.5509 H   0  0  0  0  0  0  0  0  0  0  0  0
   -4.9928    0.0438   -2.2540 H   0  0  0  0  0  0  0  0  0  0  0  0
   -4.8704    1.4464   -1.1834 H   0  0  0  0  0  0  0  0  0  0  0  0
   -5.8220    0.0390   -0.6894 H   0  0  0  0  0  0  0  0  0  0  0  0
    1.4214    0.2058    2.5220 H   0  0  0  0  0  0  0  0  0  0  0  0
    0.1729   -2.5005    2.3573 H   0  0  0  0  0  0  0  0  0  0  0  0
  1 16  1  0  0  0  0
  1  3  1  0  0  0  0
  2  1  1  0  0  0  0
  2  3  1  0  0  0  0
  3  4  1  0  0  0  0
  3 19  1  0  0  0  0
  5  4  1  0  0  0  0
  5 21  1  0  0  0  0
  5  6  1  0  0  0  0
  6 14  1  0  0  0  0
  6 13  1  0  0  0  0
  7  8  1  0  0  0  0
  7  6  1  0  0  0  0
  7 23  1  1  0  0  0
  8 24  1  0  0  0  0
  9  7  1  0  0  0  0
 10  9  1  0  0  0  0
 10 11  1  0  0  0  0
 11 31  1  0  0  0  0
 11 30  1  0  0  0  0
 12 33  1  0  0  0  0
 12 34  1  0  0  0  0
 12 11  1  0  0  0  0
 14 36  1  0  0  0  0
 15  1  1  0  0  0  0
 17  2  1  0  0  0  0
 18  2  1  0  0  0  0
 20  4  1  0  0  0  0
 22  5  1  0  0  0  0
 25  8  1  0  0  0  0
 26  9  1  0  0  0  0
 27  9  1  0  0  0  0
 28 10  1  0  0  0  0
 29 10  1  0  0  0  0
 32 12  1  0  0  0  0
 35 13  1  0  0  0  0
M  END
