omegapdb_1qxw_26.xyz
 OpenBabel12161914463D

 36 36  0  0  1  0  0  0  0  0999 V2000
    4.8823    1.2380   -0.1986 C   0  0  0  0  0  0  0  0  0  0  0  0
    4.8568   -0.2578   -0.0319 C   0  0  0  0  0  0  0  0  0  0  0  0
    3.8536    0.6063    0.6904 C   0  0  0  0  0  0  0  0  0  0  0  0
    2.4562    0.6346    0.3310 N   0  0  0  0  0  0  0  0  0  0  0  0
    1.8082   -0.6717    0.2305 C   0  0  0  0  0  0  0  0  0  0  0  0
    0.3069   -0.5409    0.5470 C   0  0  0  0  0  0  0  0  0  0  0  0
   -0.4816    0.0472   -0.6549 C   0  0  1  0  0  0  0  0  0  0  0  0
   -0.5846   -0.8864   -1.7673 N   0  0  0  0  0  0  0  0  0  0  0  0
   -1.8749    0.5417   -0.2407 C   0  0  0  0  0  0  0  0  0  0  0  0
   -2.9014   -0.5508    0.0606 C   0  0  0  0  0  0  0  0  0  0  0  0
   -4.2920    0.0027    0.3918 C   0  0  0  0  0  0  0  0  0  0  0  0
   -5.0087    0.6446   -0.7966 C   0  0  0  0  0  0  0  0  0  0  0  0
   -0.2059   -1.8315    0.7985 O   0  0  0  0  0  0  0  0  0  0  0  0
    0.1529    0.2191    1.7215 O   0  0  0  0  0  0  0  0  0  0  0  0
    5.6884    1.7995    0.2659 H   0  0  0  0  0  0  0  0  0  0  0  0
    4.5533    1.6478   -1.1507 H   0  0  0  0  0  0  0  0  0  0  0  0
    5.6366   -0.7248    0.5623 H   0  0  0  0  0  0  0  0  0  0  0  0
    4.5063   -0.8587   -0.8678 H   0  0  0  0  0  0  0  0  0  0  0  0
    4.0230    0.7196    1.7597 H   0  0  0  0  0  0  0  0  0  0  0  0
    2.3165    1.1992   -0.5022 H   0  0  0  0  0  0  0  0  0  0  0  0
    1.9625   -1.1691   -0.7382 H   0  0  0  0  0  0  0  0  0  0  0  0
    2.2234   -1.3157    1.0081 H   0  0  0  0  0  0  0  0  0  0  0  0
    0.0553    0.9388   -1.0099 H   0  0  0  0  0  0  0  0  0  0  0  0
   -0.6772   -1.8269   -1.3942 H   0  0  0  0  0  0  0  0  0  0  0  0
    0.2534   -0.8667   -2.3393 H   0  0  0  0  0  0  0  0  0  0  0  0
   -1.7697    1.2063    0.6260 H   0  0  0  0  0  0  0  0  0  0  0  0
   -2.2389    1.1522   -1.0756 H   0  0  0  0  0  0  0  0  0  0  0  0
   -2.5397   -1.1707    0.8891 H   0  0  0  0  0  0  0  0  0  0  0  0
   -2.9790   -1.2167   -0.8099 H   0  0  0  0  0  0  0  0  0  0  0  0
   -4.9111   -0.8175    0.7763 H   0  0  0  0  0  0  0  0  0  0  0  0
   -4.2095    0.7309    1.2105 H   0  0  0  0  0  0  0  0  0  0  0  0
   -6.0137    0.9795   -0.5175 H   0  0  0  0  0  0  0  0  0  0  0  0
   -4.4678    1.5180   -1.1776 H   0  0  0  0  0  0  0  0  0  0  0  0
   -5.1133   -0.0692   -1.6223 H   0  0  0  0  0  0  0  0  0  0  0  0
   -0.1174   -1.9493    1.7535 H   0  0  0  0  0  0  0  0  0  0  0  0
    0.8511    0.8984    1.6797 H   0  0  0  0  0  0  0  0  0  0  0  0
  1  2  1  0  0  0  0
  1 15  1  0  0  0  0
  1  3  1  0  0  0  0
  2 17  1  0  0  0  0
  2  3  1  0  0  0  0
  3 19  1  0  0  0  0
  4  3  1  0  0  0  0
  5  4  1  0  0  0  0
  5  6  1  0  0  0  0
  5 22  1  0  0  0  0
  6 13  1  0  0  0  0
  6 14  1  0  0  0  0
  7 23  1  6  0  0  0
  7  9  1  0  0  0  0
  7  6  1  0  0  0  0
  8 24  1  0  0  0  0
  8  7  1  0  0  0  0
  9 10  1  0  0  0  0
  9 26  1  0  0  0  0
 10 11  1  0  0  0  0
 10 28  1  0  0  0  0
 11 30  1  0  0  0  0
 11 31  1  0  0  0  0
 12 32  1  0  0  0  0
 12 11  1  0  0  0  0
 13 35  1  0  0  0  0
 16  1  1  0  0  0  0
 18  2  1  0  0  0  0
 20  4  1  0  0  0  0
 21  5  1  0  0  0  0
 25  8  1  0  0  0  0
 27  9  1  0  0  0  0
 29 10  1  0  0  0  0
 33 12  1  0  0  0  0
 34 12  1  0  0  0  0
 36 14  1  0  0  0  0
M  END
