omegapdb_1v2k_11.xyz
 OpenBabel12161914463D

 61 65  0  0  0  0  0  0  0  0999 V2000
    9.6293    0.9275   -0.7192 N   0  0  0  0  0  0  0  0  0  0  0  0
    9.0456    0.1272   -1.6141 C   0  0  0  0  0  0  0  0  0  0  0  0
    7.7045   -0.2229   -1.6050 C   0  0  0  0  0  0  0  0  0  0  0  0
    6.8724    0.2740   -0.5896 C   0  0  0  0  0  0  0  0  0  0  0  0
    7.4799    1.1065    0.3626 C   0  0  0  0  0  0  0  0  0  0  0  0
    8.8328    1.3953    0.2418 C   0  0  0  0  0  0  0  0  0  0  0  0
    5.5260   -0.0889   -0.5469 N   0  0  0  0  0  0  0  0  0  0  0  0
    4.7710    0.2514    0.6520 C   0  0  0  0  0  0  0  0  0  0  0  0
    3.4719   -0.5433    0.7311 C   0  0  0  0  0  0  0  0  0  0  0  0
    2.6294   -0.3528   -0.5373 C   0  0  0  0  0  0  0  0  0  0  0  0
    3.4784   -0.7248   -1.7526 C   0  0  0  0  0  0  0  0  0  0  0  0
    4.7599    0.0938   -1.7780 C   0  0  0  0  0  0  0  0  0  0  0  0
    1.3924   -1.2411   -0.4784 C   0  0  0  0  0  0  0  0  0  0  0  0
    1.4457   -2.4089   -0.8414 O   0  0  0  0  0  0  0  0  0  0  0  0
    0.2312   -0.7064    0.0080 N   0  0  0  0  0  0  0  0  0  0  0  0
   -0.9736   -1.5370   -0.0381 C   0  0  0  0  0  0  0  0  0  0  0  0
   -2.1932   -0.6332   -0.1290 C   0  0  0  0  0  0  0  0  0  0  0  0
   -2.3077    0.2478    1.0437 N   0  0  0  0  0  0  0  0  0  0  0  0
   -1.0090    0.6015    1.6550 C   0  0  0  0  0  0  0  0  0  0  0  0
    0.1062    0.6193    0.6120 C   0  0  0  0  0  0  0  0  0  0  0  0
   -3.4068   -0.2523    2.2222 S   0  0  0  0  0  0  0  0  0  0  0  0
   -3.4558    0.7941    3.2310 O   0  0  0  0  0  0  0  0  0  0  0  0
   -3.0966   -1.6248    2.6088 O   0  0  0  0  0  0  0  0  0  0  0  0
   -4.9336   -0.2730    1.3219 C   0  0  0  0  0  0  0  0  0  0  0  0
   -5.3408    0.8556    0.6625 C   0  0  0  0  0  0  0  0  0  0  0  0
   -6.5542    0.8335   -0.0792 C   0  0  0  0  0  0  0  0  0  0  0  0
   -7.3282   -0.3542   -0.1097 C   0  0  0  0  0  0  0  0  0  0  0  0
   -6.8726   -1.4984    0.6046 C   0  0  0  0  0  0  0  0  0  0  0  0
   -5.6988   -1.4626    1.3076 C   0  0  0  0  0  0  0  0  0  0  0  0
   -8.5417   -0.3765   -0.8491 C   0  0  0  0  0  0  0  0  0  0  0  0
   -8.9455    0.7395   -1.5274 C   0  0  0  0  0  0  0  0  0  0  0  0
   -8.1833    1.9330   -1.5080 C   0  0  0  0  0  0  0  0  0  0  0  0
   -7.0152    1.9685   -0.7956 C   0  0  0  0  0  0  0  0  0  0  0  0
  -10.4270    0.7123   -2.4436 Cl  0  0  0  0  0  0  0  0  0  0  0  0
    9.6909   -0.2582   -2.4029 H   0  0  0  0  0  0  0  0  0  0  0  0
    7.3164   -0.9027   -2.3573 H   0  0  0  0  0  0  0  0  0  0  0  0
    6.9106    1.5487    1.1724 H   0  0  0  0  0  0  0  0  0  0  0  0
    9.3039    2.0492    0.9762 H   0  0  0  0  0  0  0  0  0  0  0  0
    4.5430    1.3345    0.6873 H   0  0  0  0  0  0  0  0  0  0  0  0
    5.3891    0.0160    1.5228 H   0  0  0  0  0  0  0  0  0  0  0  0
    3.7026   -1.6095    0.8401 H   0  0  0  0  0  0  0  0  0  0  0  0
    2.9166   -0.2415    1.6279 H   0  0  0  0  0  0  0  0  0  0  0  0
    2.3331    0.7021   -0.6239 H   0  0  0  0  0  0  0  0  0  0  0  0
    3.7095   -1.7936   -1.6993 H   0  0  0  0  0  0  0  0  0  0  0  0
    2.9172   -0.5616   -2.6799 H   0  0  0  0  0  0  0  0  0  0  0  0
    4.5207    1.1636   -1.9288 H   0  0  0  0  0  0  0  0  0  0  0  0
    5.3765   -0.2082   -2.6264 H   0  0  0  0  0  0  0  0  0  0  0  0
   -1.0408   -2.1813    0.8492 H   0  0  0  0  0  0  0  0  0  0  0  0
   -0.9056   -2.1869   -0.9122 H   0  0  0  0  0  0  0  0  0  0  0  0
   -3.1085   -1.2215   -0.2365 H   0  0  0  0  0  0  0  0  0  0  0  0
   -2.1131    0.0030   -1.0188 H   0  0  0  0  0  0  0  0  0  0  0  0
   -0.7446   -0.1150    2.4461 H   0  0  0  0  0  0  0  0  0  0  0  0
   -1.1204    1.5827    2.1207 H   0  0  0  0  0  0  0  0  0  0  0  0
   -0.0906    1.3936   -0.1445 H   0  0  0  0  0  0  0  0  0  0  0  0
    1.0396    0.8793    1.1198 H   0  0  0  0  0  0  0  0  0  0  0  0
   -4.7433    1.7629    0.6960 H   0  0  0  0  0  0  0  0  0  0  0  0
   -7.4721   -2.4042    0.5809 H   0  0  0  0  0  0  0  0  0  0  0  0
   -5.3306   -2.3253    1.8540 H   0  0  0  0  0  0  0  0  0  0  0  0
   -9.1402   -1.2830   -0.8738 H   0  0  0  0  0  0  0  0  0  0  0  0
   -8.5354    2.7993   -2.0589 H   0  0  0  0  0  0  0  0  0  0  0  0
   -6.4176    2.8775   -0.7695 H   0  0  0  0  0  0  0  0  0  0  0  0
  1  6  2  0  0  0  0
  2  3  2  0  0  0  0
  2  1  1  0  0  0  0
  3  4  1  0  0  0  0
  4  7  1  0  0  0  0
  4  5  2  0  0  0  0
  5 37  1  0  0  0  0
  6  5  1  0  0  0  0
  6 38  1  0  0  0  0
  7  8  1  0  0  0  0
  8 39  1  0  0  0  0
  8  9  1  0  0  0  0
  8 40  1  0  0  0  0
  9 41  1  0  0  0  0
  9 42  1  0  0  0  0
 10 13  1  0  0  0  0
 10  9  1  0  0  0  0
 11 44  1  0  0  0  0
 11 10  1  0  0  0  0
 12 11  1  0  0  0  0
 12  7  1  0  0  0  0
 13 15  1  0  0  0  0
 14 13  2  0  0  0  0
 15 20  1  0  0  0  0
 16 15  1  0  0  0  0
 16 48  1  0  0  0  0
 17 16  1  0  0  0  0
 17 18  1  0  0  0  0
 18 19  1  0  0  0  0
 18 21  1  0  0  0  0
 19 53  1  0  0  0  0
 19 52  1  0  0  0  0
 20 55  1  0  0  0  0
 20 19  1  0  0  0  0
 21 23  2  0  0  0  0
 21 22  2  0  0  0  0
 24 21  1  0  0  0  0
 25 56  1  0  0  0  0
 25 24  2  0  0  0  0
 26 25  1  0  0  0  0
 27 26  1  0  0  0  0
 27 28  1  0  0  0  0
 28 29  2  0  0  0  0
 29 24  1  0  0  0  0
 29 58  1  0  0  0  0
 30 27  2  0  0  0  0
 31 32  2  0  0  0  0
 31 30  1  0  0  0  0
 32 33  1  0  0  0  0
 33 61  1  0  0  0  0
 33 26  2  0  0  0  0
 34 31  1  0  0  0  0
 35  2  1  0  0  0  0
 36  3  1  0  0  0  0
 43 10  1  0  0  0  0
 45 11  1  0  0  0  0
 46 12  1  0  0  0  0
 47 12  1  0  0  0  0
 49 16  1  0  0  0  0
 50 17  1  0  0  0  0
 51 17  1  0  0  0  0
 54 20  1  0  0  0  0
 57 28  1  0  0  0  0
 59 30  1  0  0  0  0
 60 32  1  0  0  0  0
M  END
