omegapdb_1qxw_03.xyz
 OpenBabel12161914463D

 36 36  0  0  1  0  0  0  0  0999 V2000
    3.9029    1.9714   -0.0970 C   0  0  0  0  0  0  0  0  0  0  0  0
    5.0328    1.0358    0.2309 C   0  0  0  0  0  0  0  0  0  0  0  0
    3.6168    0.5995    0.4389 C   0  0  0  0  0  0  0  0  0  0  0  0
    3.0968   -0.3528   -0.5019 N   0  0  0  0  0  0  0  0  0  0  0  0
    1.6558   -0.2873   -0.6720 C   0  0  0  0  0  0  0  0  0  0  0  0
    0.8554   -1.0565    0.3881 C   0  0  0  0  0  0  0  0  0  0  0  0
   -0.6269   -1.2348   -0.0072 C   0  0  1  0  0  0  0  0  0  0  0  0
   -1.1616   -2.1811    0.9774 N   0  0  0  0  0  0  0  0  0  0  0  0
   -1.3976    0.0800   -0.1218 C   0  0  0  0  0  0  0  0  0  0  0  0
   -2.8650   -0.1360   -0.4890 C   0  0  0  0  0  0  0  0  0  0  0  0
   -3.6520    1.1615   -0.6575 C   0  0  0  0  0  0  0  0  0  0  0  0
   -5.1086    0.9075   -1.0352 C   0  0  0  0  0  0  0  0  0  0  0  0
    0.8977   -0.3627    1.6340 O   0  0  0  0  0  0  0  0  0  0  0  0
    1.4263   -2.3350    0.5491 O   0  0  0  0  0  0  0  0  0  0  0  0
    3.7264    2.8294    0.5463 H   0  0  0  0  0  0  0  0  0  0  0  0
    3.6786    2.1246   -1.1495 H   0  0  0  0  0  0  0  0  0  0  0  0
    5.6450    1.2374    1.1058 H   0  0  0  0  0  0  0  0  0  0  0  0
    5.5617    0.5852   -0.6036 H   0  0  0  0  0  0  0  0  0  0  0  0
    3.2490    0.5346    1.4673 H   0  0  0  0  0  0  0  0  0  0  0  0
    3.3559   -1.2957   -0.2232 H   0  0  0  0  0  0  0  0  0  0  0  0
    1.3528    0.7643   -0.6622 H   0  0  0  0  0  0  0  0  0  0  0  0
    1.4034   -0.6945   -1.6619 H   0  0  0  0  0  0  0  0  0  0  0  0
   -0.6364   -1.7388   -0.9845 H   0  0  0  0  0  0  0  0  0  0  0  0
   -1.3262   -1.6911    1.8540 H   0  0  0  0  0  0  0  0  0  0  0  0
   -2.0440   -2.5787    0.6722 H   0  0  0  0  0  0  0  0  0  0  0  0
   -1.3229    0.6322    0.8243 H   0  0  0  0  0  0  0  0  0  0  0  0
   -0.9275    0.7046   -0.8932 H   0  0  0  0  0  0  0  0  0  0  0  0
   -3.3523   -0.7438    0.2869 H   0  0  0  0  0  0  0  0  0  0  0  0
   -2.9280   -0.7202   -1.4200 H   0  0  0  0  0  0  0  0  0  0  0  0
   -3.1748    1.7841   -1.4261 H   0  0  0  0  0  0  0  0  0  0  0  0
   -3.6061    1.7363    0.2774 H   0  0  0  0  0  0  0  0  0  0  0  0
   -5.6183    0.3212   -0.2619 H   0  0  0  0  0  0  0  0  0  0  0  0
   -5.6630    1.8424   -1.1651 H   0  0  0  0  0  0  0  0  0  0  0  0
   -5.1745    0.3436   -1.9731 H   0  0  0  0  0  0  0  0  0  0  0  0
    1.4280   -0.9344    2.2041 H   0  0  0  0  0  0  0  0  0  0  0  0
    0.7001   -2.8524    0.9565 H   0  0  0  0  0  0  0  0  0  0  0  0
  1  2  1  0  0  0  0
  1  3  1  0  0  0  0
  1 15  1  0  0  0  0
  2  3  1  0  0  0  0
  2 17  1  0  0  0  0
  3 19  1  0  0  0  0
  4 20  1  0  0  0  0
  4  3  1  0  0  0  0
  5 21  1  0  0  0  0
  5  4  1  0  0  0  0
  5  6  1  0  0  0  0
  6 14  1  0  0  0  0
  6 13  1  0  0  0  0
  7 23  1  6  0  0  0
  7  6  1  0  0  0  0
  7  8  1  0  0  0  0
  8 24  1  0  0  0  0
  9  7  1  0  0  0  0
  9 26  1  0  0  0  0
 10  9  1  0  0  0  0
 10 28  1  0  0  0  0
 11 10  1  0  0  0  0
 11 31  1  0  0  0  0
 12 11  1  0  0  0  0
 12 32  1  0  0  0  0
 13 35  1  0  0  0  0
 14 36  1  0  0  0  0
 16  1  1  0  0  0  0
 18  2  1  0  0  0  0
 22  5  1  0  0  0  0
 25  8  1  0  0  0  0
 27  9  1  0  0  0  0
 29 10  1  0  0  0  0
 30 11  1  0  0  0  0
 33 12  1  0  0  0  0
 34 12  1  0  0  0  0
M  END
