omegapdb_1xom_03.xyz
 OpenBabel12161914463D

 50 52  0  0  1  0  0  0  0  0999 V2000
    6.5045    0.8637   -0.3411 O   0  0  0  0  0  0  0  0  0  0  0  0
    5.5750    1.7112   -0.8354 C   0  0  0  0  0  0  0  0  0  0  0  0
    5.8711    2.8054   -1.2519 O   0  0  0  0  0  0  0  0  0  0  0  0
    4.1668    1.1629   -0.7553 C   0  0  1  0  0  0  0  0  0  0  0  0
    4.0317   -0.2680   -1.2930 C   0  0  0  0  0  0  0  0  0  0  0  0
    2.5828   -0.7440   -1.1835 C   0  0  0  0  0  0  0  0  0  0  0  0
    2.0245   -0.6575    0.2655 C   0  0  2  0  0  0  0  0  0  0  0  0
    2.1969    0.7941    0.7710 C   0  0  0  0  0  0  0  0  0  0  0  0
    3.6455    1.2723    0.6892 C   0  0  0  0  0  0  0  0  0  0  0  0
    2.8211   -1.5567    1.1413 C   0  0  0  0  0  0  0  0  0  0  0  0
    3.4116   -2.2772    1.8287 N   0  0  0  0  0  0  0  0  0  0  0  0
    0.5701   -1.1621    0.3096 C   0  0  0  0  0  0  0  0  0  0  0  0
    0.3267   -2.5077    0.0719 C   0  0  0  0  0  0  0  0  0  0  0  0
   -0.9744   -3.0102    0.0454 C   0  0  0  0  0  0  0  0  0  0  0  0
   -2.0584   -2.1762    0.2731 C   0  0  0  0  0  0  0  0  0  0  0  0
   -3.3550   -2.5697    0.2681 O   0  0  0  0  0  0  0  0  0  0  0  0
   -3.6111   -3.9338    0.0244 C   0  0  0  0  0  0  0  0  0  0  0  0
   -1.8244   -0.8062    0.5289 C   0  0  0  0  0  0  0  0  0  0  0  0
   -0.5214   -0.3200    0.5388 C   0  0  0  0  0  0  0  0  0  0  0  0
   -2.9437   -0.0660    0.7591 O   0  0  0  0  0  0  0  0  0  0  0  0
   -2.8194    1.3322    0.9958 C   0  0  0  0  0  0  0  0  0  0  0  0
   -2.5769    2.0884   -0.3095 C   0  0  0  0  0  0  0  0  0  0  0  0
   -3.9493    2.0692   -1.0106 C   0  0  0  0  0  0  0  0  0  0  0  0
   -4.9989    1.9383    0.1234 C   0  0  0  0  0  0  0  0  0  0  0  0
   -4.1950    1.8184    1.4356 C   0  0  0  0  0  0  0  0  0  0  0  0
    7.3501    1.3368   -0.4107 H   0  0  0  0  0  0  0  0  0  0  0  0
    3.5629    1.8301   -1.3805 H   0  0  0  0  0  0  0  0  0  0  0  0
    4.3487   -0.3040   -2.3418 H   0  0  0  0  0  0  0  0  0  0  0  0
    4.6995   -0.9389   -0.7424 H   0  0  0  0  0  0  0  0  0  0  0  0
    2.4783   -1.7691   -1.5575 H   0  0  0  0  0  0  0  0  0  0  0  0
    1.9395   -0.1171   -1.8125 H   0  0  0  0  0  0  0  0  0  0  0  0
    1.8234    0.8765    1.7973 H   0  0  0  0  0  0  0  0  0  0  0  0
    1.5758    1.4459    0.1423 H   0  0  0  0  0  0  0  0  0  0  0  0
    3.7092    2.3138    1.0263 H   0  0  0  0  0  0  0  0  0  0  0  0
    4.2794    0.6812    1.3603 H   0  0  0  0  0  0  0  0  0  0  0  0
    1.1559   -3.1949   -0.0866 H   0  0  0  0  0  0  0  0  0  0  0  0
   -1.1210   -4.0650   -0.1554 H   0  0  0  0  0  0  0  0  0  0  0  0
   -3.2655   -4.2344   -0.9741 H   0  0  0  0  0  0  0  0  0  0  0  0
   -3.1310   -4.5718    0.7786 H   0  0  0  0  0  0  0  0  0  0  0  0
   -4.6937   -4.0547    0.0843 H   0  0  0  0  0  0  0  0  0  0  0  0
   -0.3554    0.7349    0.7330 H   0  0  0  0  0  0  0  0  0  0  0  0
   -2.0517    1.5126    1.7595 H   0  0  0  0  0  0  0  0  0  0  0  0
   -1.7830    1.6487   -0.9202 H   0  0  0  0  0  0  0  0  0  0  0  0
   -2.2729    3.1128   -0.0614 H   0  0  0  0  0  0  0  0  0  0  0  0
   -4.0157    1.2089   -1.6818 H   0  0  0  0  0  0  0  0  0  0  0  0
   -4.0998    2.9637   -1.6230 H   0  0  0  0  0  0  0  0  0  0  0  0
   -5.6791    2.7951    0.1573 H   0  0  0  0  0  0  0  0  0  0  0  0
   -5.6156    1.0504   -0.0349 H   0  0  0  0  0  0  0  0  0  0  0  0
   -4.6465    1.1391    2.1633 H   0  0  0  0  0  0  0  0  0  0  0  0
   -4.0923    2.7991    1.9163 H   0  0  0  0  0  0  0  0  0  0  0  0
  2  4  1  0  0  0  0
  2  1  1  0  0  0  0
  3  2  2  0  0  0  0
  4 27  1  6  0  0  0
  4  9  1  0  0  0  0
  5  6  1  0  0  0  0
  5  4  1  0  0  0  0
  5 29  1  0  0  0  0
  6  7  1  0  0  0  0
  7 12  1  0  0  0  0
  7  8  1  0  0  0  0
  7 10  1  1  0  0  0
  8 32  1  0  0  0  0
  9  8  1  0  0  0  0
  9 34  1  0  0  0  0
  9 35  1  0  0  0  0
 10 11  3  0  0  0  0
 12 19  2  0  0  0  0
 13 12  1  0  0  0  0
 14 13  2  0  0  0  0
 14 15  1  0  0  0  0
 15 18  2  0  0  0  0
 16 15  1  0  0  0  0
 17 40  1  0  0  0  0
 17 16  1  0  0  0  0
 17 39  1  0  0  0  0
 18 19  1  0  0  0  0
 18 20  1  0  0  0  0
 19 41  1  0  0  0  0
 20 21  1  0  0  0  0
 21 25  1  0  0  0  0
 21 42  1  0  0  0  0
 22 44  1  0  0  0  0
 22 21  1  0  0  0  0
 23 22  1  0  0  0  0
 23 24  1  0  0  0  0
 24 47  1  0  0  0  0
 24 25  1  0  0  0  0
 25 50  1  0  0  0  0
 25 49  1  0  0  0  0
 26  1  1  0  0  0  0
 28  5  1  0  0  0  0
 30  6  1  0  0  0  0
 31  6  1  0  0  0  0
 33  8  1  0  0  0  0
 36 13  1  0  0  0  0
 37 14  1  0  0  0  0
 38 17  1  0  0  0  0
 43 22  1  0  0  0  0
 45 23  1  0  0  0  0
 46 23  1  0  0  0  0
 48 24  1  0  0  0  0
M  END
