omegapdb_1qxw_20.xyz
 OpenBabel12161914463D

 36 36  0  0  1  0  0  0  0  0999 V2000
    2.3333    2.2084   -0.0064 C   0  0  0  0  0  0  0  0  0  0  0  0
    2.6785    1.7951   -1.4147 C   0  0  0  0  0  0  0  0  0  0  0  0
    2.7749    0.8037   -0.2964 C   0  0  0  0  0  0  0  0  0  0  0  0
    1.7808   -0.2319   -0.2523 N   0  0  0  0  0  0  0  0  0  0  0  0
    1.4869   -0.6870    1.0980 C   0  0  0  0  0  0  0  0  0  0  0  0
    0.3597   -1.7087    1.0797 C   0  0  0  0  0  0  0  0  0  0  0  0
   -0.8891   -1.2147    0.3231 C   0  0  1  0  0  0  0  0  0  0  0  0
   -1.9787   -2.1825    0.3274 N   0  0  0  0  0  0  0  0  0  0  0  0
   -1.3851    0.1392    0.8437 C   0  0  0  0  0  0  0  0  0  0  0  0
   -2.6374    0.6496    0.1237 C   0  0  0  0  0  0  0  0  0  0  0  0
   -2.5198    0.6744   -1.4050 C   0  0  0  0  0  0  0  0  0  0  0  0
   -1.3008    1.4349   -1.9281 C   0  0  0  0  0  0  0  0  0  0  0  0
    0.8804   -2.8722    0.4492 O   0  0  0  0  0  0  0  0  0  0  0  0
   -0.0301   -2.0239    2.4056 O   0  0  0  0  0  0  0  0  0  0  0  0
    3.0104    2.8674    0.5302 H   0  0  0  0  0  0  0  0  0  0  0  0
    1.2802    2.3491    0.2277 H   0  0  0  0  0  0  0  0  0  0  0  0
    1.8427    1.6571   -2.0975 H   0  0  0  0  0  0  0  0  0  0  0  0
    3.5928    2.1664   -1.8678 H   0  0  0  0  0  0  0  0  0  0  0  0
    3.7839    0.5413    0.0367 H   0  0  0  0  0  0  0  0  0  0  0  0
    2.0855   -1.0209   -0.8192 H   0  0  0  0  0  0  0  0  0  0  0  0
    2.3503   -1.1565    1.5943 H   0  0  0  0  0  0  0  0  0  0  0  0
    1.1929    0.1722    1.7093 H   0  0  0  0  0  0  0  0  0  0  0  0
   -0.5822   -1.0879   -0.7212 H   0  0  0  0  0  0  0  0  0  0  0  0
   -2.1482   -2.4923    1.2815 H   0  0  0  0  0  0  0  0  0  0  0  0
   -1.7231   -3.0024   -0.2150 H   0  0  0  0  0  0  0  0  0  0  0  0
   -1.5787    0.0703    1.9217 H   0  0  0  0  0  0  0  0  0  0  0  0
   -0.5854    0.8830    0.7150 H   0  0  0  0  0  0  0  0  0  0  0  0
   -3.4909    0.0209    0.4017 H   0  0  0  0  0  0  0  0  0  0  0  0
   -2.8552    1.6623    0.4892 H   0  0  0  0  0  0  0  0  0  0  0  0
   -2.4914   -0.3597   -1.7727 H   0  0  0  0  0  0  0  0  0  0  0  0
   -3.4353    1.1145   -1.8195 H   0  0  0  0  0  0  0  0  0  0  0  0
   -1.2761    2.4627   -1.5456 H   0  0  0  0  0  0  0  0  0  0  0  0
   -1.3017    1.4815   -3.0218 H   0  0  0  0  0  0  0  0  0  0  0  0
   -0.3639    0.9508   -1.6252 H   0  0  0  0  0  0  0  0  0  0  0  0
    0.4044   -3.6173    0.8383 H   0  0  0  0  0  0  0  0  0  0  0  0
    0.7354   -2.4468    2.8196 H   0  0  0  0  0  0  0  0  0  0  0  0
  1 16  1  0  0  0  0
  1 15  1  0  0  0  0
  2  3  1  0  0  0  0
  2  1  1  0  0  0  0
  3  4  1  0  0  0  0
  3  1  1  0  0  0  0
  3 19  1  0  0  0  0
  4  5  1  0  0  0  0
  5 21  1  0  0  0  0
  5 22  1  0  0  0  0
  6  5  1  0  0  0  0
  6 14  1  0  0  0  0
  7 23  1  6  0  0  0
  7  8  1  0  0  0  0
  7  9  1  0  0  0  0
  7  6  1  0  0  0  0
  8 24  1  0  0  0  0
  9 26  1  0  0  0  0
 10 28  1  0  0  0  0
 10 29  1  0  0  0  0
 10  9  1  0  0  0  0
 11 10  1  0  0  0  0
 12 34  1  0  0  0  0
 12 32  1  0  0  0  0
 12 11  1  0  0  0  0
 13 35  1  0  0  0  0
 13  6  1  0  0  0  0
 14 36  1  0  0  0  0
 17  2  1  0  0  0  0
 18  2  1  0  0  0  0
 20  4  1  0  0  0  0
 25  8  1  0  0  0  0
 27  9  1  0  0  0  0
 30 11  1  0  0  0  0
 31 11  1  0  0  0  0
 33 12  1  0  0  0  0
M  END
