omegapdb_1qxw_27.xyz
 OpenBabel12161914463D

 36 36  0  0  1  0  0  0  0  0999 V2000
    3.4612    1.4350   -0.1939 C   0  0  0  0  0  0  0  0  0  0  0  0
    2.4878    2.4461   -0.7456 C   0  0  0  0  0  0  0  0  0  0  0  0
    2.2416    0.9850   -0.9491 C   0  0  0  0  0  0  0  0  0  0  0  0
    1.1420    0.3514   -0.2772 N   0  0  0  0  0  0  0  0  0  0  0  0
    1.4240   -1.0121    0.1330 C   0  0  0  0  0  0  0  0  0  0  0  0
    0.3589   -1.5599    1.0802 C   0  0  0  0  0  0  0  0  0  0  0  0
   -0.9141   -2.0713    0.3551 C   0  0  1  0  0  0  0  0  0  0  0  0
   -1.9195   -2.5854    1.2757 N   0  0  0  0  0  0  0  0  0  0  0  0
   -1.5592   -1.0991   -0.6347 C   0  0  0  0  0  0  0  0  0  0  0  0
   -2.3070    0.0914   -0.0245 C   0  0  0  0  0  0  0  0  0  0  0  0
   -2.6444    1.1757   -1.0543 C   0  0  0  0  0  0  0  0  0  0  0  0
   -1.4295    1.9940   -1.4946 C   0  0  0  0  0  0  0  0  0  0  0  0
    0.0825   -0.5334    2.0212 O   0  0  0  0  0  0  0  0  0  0  0  0
    0.8771   -2.6863    1.7723 O   0  0  0  0  0  0  0  0  0  0  0  0
    4.4298    1.3339   -0.6742 H   0  0  0  0  0  0  0  0  0  0  0  0
    3.4758    1.2824    0.8842 H   0  0  0  0  0  0  0  0  0  0  0  0
    2.7883    3.0497   -1.5969 H   0  0  0  0  0  0  0  0  0  0  0  0
    1.8441    2.9601   -0.0336 H   0  0  0  0  0  0  0  0  0  0  0  0
    2.4104    0.6100   -1.9590 H   0  0  0  0  0  0  0  0  0  0  0  0
    0.8685    0.8928    0.5373 H   0  0  0  0  0  0  0  0  0  0  0  0
    2.3922   -1.0929    0.6503 H   0  0  0  0  0  0  0  0  0  0  0  0
    1.4820   -1.6610   -0.7490 H   0  0  0  0  0  0  0  0  0  0  0  0
   -0.5616   -2.9267   -0.2381 H   0  0  0  0  0  0  0  0  0  0  0  0
   -1.4861   -3.2645    1.8945 H   0  0  0  0  0  0  0  0  0  0  0  0
   -2.2773   -1.8353    1.8605 H   0  0  0  0  0  0  0  0  0  0  0  0
   -0.7926   -0.7466   -1.3317 H   0  0  0  0  0  0  0  0  0  0  0  0
   -2.2690   -1.6880   -1.2283 H   0  0  0  0  0  0  0  0  0  0  0  0
   -1.7200    0.5369    0.7887 H   0  0  0  0  0  0  0  0  0  0  0  0
   -3.2380   -0.2716    0.4317 H   0  0  0  0  0  0  0  0  0  0  0  0
   -3.3913    1.8531   -0.6204 H   0  0  0  0  0  0  0  0  0  0  0  0
   -3.1232    0.7181   -1.9323 H   0  0  0  0  0  0  0  0  0  0  0  0
   -0.9429    2.4673   -0.6324 H   0  0  0  0  0  0  0  0  0  0  0  0
   -0.6739    1.3675   -1.9797 H   0  0  0  0  0  0  0  0  0  0  0  0
   -1.7143    2.7867   -2.1935 H   0  0  0  0  0  0  0  0  0  0  0  0
   -0.2658   -0.9709    2.8110 H   0  0  0  0  0  0  0  0  0  0  0  0
    1.4633   -2.3318    2.4544 H   0  0  0  0  0  0  0  0  0  0  0  0
  1 16  1  0  0  0  0
  2  1  1  0  0  0  0
  2 18  1  0  0  0  0
  3  2  1  0  0  0  0
  3  4  1  0  0  0  0
  3  1  1  0  0  0  0
  4  5  1  0  0  0  0
  4 20  1  0  0  0  0
  5 21  1  0  0  0  0
  5  6  1  0  0  0  0
  6 14  1  0  0  0  0
  6 13  1  0  0  0  0
  7 23  1  6  0  0  0
  7  6  1  0  0  0  0
  7  8  1  0  0  0  0
  8 25  1  0  0  0  0
  8 24  1  0  0  0  0
  9 10  1  0  0  0  0
  9  7  1  0  0  0  0
 10 29  1  0  0  0  0
 10 28  1  0  0  0  0
 11 30  1  0  0  0  0
 11 10  1  0  0  0  0
 12 11  1  0  0  0  0
 12 32  1  0  0  0  0
 13 35  1  0  0  0  0
 14 36  1  0  0  0  0
 15  1  1  0  0  0  0
 17  2  1  0  0  0  0
 19  3  1  0  0  0  0
 22  5  1  0  0  0  0
 26  9  1  0  0  0  0
 27  9  1  0  0  0  0
 31 11  1  0  0  0  0
 33 12  1  0  0  0  0
 34 12  1  0  0  0  0
M  END
