omegapdb_1gs5_03.xyz
 OpenBabel12161914463D

 24 23  0  0  1  0  0  0  0  0999 V2000
   -0.5382   -0.9977   -0.4163 C   0  0  2  0  0  0  0  0  0  0  0  0
   -1.0645   -1.8651    0.7107 C   0  0  0  0  0  0  0  0  0  0  0  0
   -1.9752   -1.5668    1.4473 O   0  0  0  0  0  0  0  0  0  0  0  0
   -0.3927   -3.0221    0.8103 O   0  0  0  0  0  0  0  0  0  0  0  0
    0.9732   -0.7461   -0.2918 C   0  0  0  0  0  0  0  0  0  0  0  0
    1.3530    0.0230    0.9642 C   0  0  0  0  0  0  0  0  0  0  0  0
    2.8143    0.3941    0.9530 C   0  0  0  0  0  0  0  0  0  0  0  0
    3.5825    0.2008    0.0417 O   0  0  0  0  0  0  0  0  0  0  0  0
    3.1906    0.9919    2.1002 O   0  0  0  0  0  0  0  0  0  0  0  0
   -1.3149    0.2187   -0.4282 N   0  0  0  0  0  0  0  0  0  0  0  0
   -1.3582    1.0034   -1.5433 C   0  0  0  0  0  0  0  0  0  0  0  0
   -0.6732    0.7609   -2.5256 O   0  0  0  0  0  0  0  0  0  0  0  0
   -2.3034    2.1840   -1.4507 C   0  0  0  0  0  0  0  0  0  0  0  0
   -0.7014   -1.5337   -1.3596 H   0  0  0  0  0  0  0  0  0  0  0  0
   -0.7944   -3.5116    1.5476 H   0  0  0  0  0  0  0  0  0  0  0  0
    1.4937   -1.7079   -0.3224 H   0  0  0  0  0  0  0  0  0  0  0  0
    1.2770   -0.1742   -1.1716 H   0  0  0  0  0  0  0  0  0  0  0  0
    1.1476   -0.5480    1.8781 H   0  0  0  0  0  0  0  0  0  0  0  0
    0.7729    0.9500    1.0446 H   0  0  0  0  0  0  0  0  0  0  0  0
    4.1348    1.1967    1.9969 H   0  0  0  0  0  0  0  0  0  0  0  0
   -2.0098    0.3148    0.3011 H   0  0  0  0  0  0  0  0  0  0  0  0
   -2.2542    2.7471   -2.3836 H   0  0  0  0  0  0  0  0  0  0  0  0
   -3.3337    1.8486   -1.2856 H   0  0  0  0  0  0  0  0  0  0  0  0
   -2.0259    2.8389   -0.6169 H   0  0  0  0  0  0  0  0  0  0  0  0
  1 14  1  6  0  0  0
  1  5  1  0  0  0  0
  1  2  1  0  0  0  0
  2  4  1  0  0  0  0
  2  3  2  0  0  0  0
  4 15  1  0  0  0  0
  5  6  1  0  0  0  0
  6 19  1  0  0  0  0
  6 18  1  0  0  0  0
  7  6  1  0  0  0  0
  7  9  1  0  0  0  0
  8  7  2  0  0  0  0
 10  1  1  0  0  0  0
 10 21  1  0  0  0  0
 11 13  1  0  0  0  0
 11 10  1  0  0  0  0
 12 11  2  0  0  0  0
 13 23  1  0  0  0  0
 13 24  1  0  0  0  0
 16  5  1  0  0  0  0
 17  5  1  0  0  0  0
 20  9  1  0  0  0  0
 22 13  1  0  0  0  0
M  END
