omegapdb_2f7p_15.xyz
 OpenBabel12161914463D

 34 35  0  0  1  0  0  0  0  0999 V2000
   -1.1181   -0.7402   -0.0834 C   0  0  1  0  0  0  0  0  0  0  0  0
    0.2478   -0.4110    0.2288 N   0  0  0  0  0  0  0  0  0  0  0  0
    1.0209    0.1410   -0.8700 C   0  0  0  0  0  0  0  0  0  0  0  0
    2.4847    0.2776   -0.5171 C   0  0  0  0  0  0  0  0  0  0  0  0
    3.1053   -0.6327    0.3388 C   0  0  0  0  0  0  0  0  0  0  0  0
    4.4556   -0.5044    0.6474 C   0  0  0  0  0  0  0  0  0  0  0  0
    5.2032    0.5366    0.1040 C   0  0  0  0  0  0  0  0  0  0  0  0
    4.5929    1.4443   -0.7560 C   0  0  0  0  0  0  0  0  0  0  0  0
    3.2429    1.3113   -1.0647 C   0  0  0  0  0  0  0  0  0  0  0  0
   -1.8634   -1.2226    1.1701 C   0  0  1  0  0  0  0  0  0  0  0  0
   -1.5879   -0.3642    2.2661 O   0  0  0  0  0  0  0  0  0  0  0  0
   -3.3347   -1.1491    0.7292 C   0  0  1  0  0  0  0  0  0  0  0  0
   -4.2803   -1.3345    1.7380 O   0  0  0  0  0  0  0  0  0  0  0  0
   -3.4125    0.2206    0.0293 C   0  0  1  0  0  0  0  0  0  0  0  0
   -3.6096    1.1583    1.0958 O   0  0  0  0  0  0  0  0  0  0  0  0
   -2.0210    0.4197   -0.6245 C   0  0  2  0  0  0  0  0  0  0  0  0
   -2.0455    0.5978   -2.4269 S   0  0  0  0  0  0  0  0  0  0  0  0
   -1.1145   -1.5564   -0.8259 H   0  0  0  0  0  0  0  0  0  0  0  0
    0.2571    0.1903    1.0487 H   0  0  0  0  0  0  0  0  0  0  0  0
    0.9030   -0.5379   -1.7272 H   0  0  0  0  0  0  0  0  0  0  0  0
    0.6482    1.1228   -1.2098 H   0  0  0  0  0  0  0  0  0  0  0  0
    2.5140   -1.4387    0.7655 H   0  0  0  0  0  0  0  0  0  0  0  0
    4.9280   -1.2196    1.3169 H   0  0  0  0  0  0  0  0  0  0  0  0
    6.2572    0.6400    0.3495 H   0  0  0  0  0  0  0  0  0  0  0  0
    5.1685    2.2602   -1.1872 H   0  0  0  0  0  0  0  0  0  0  0  0
    2.7721    2.0223   -1.7413 H   0  0  0  0  0  0  0  0  0  0  0  0
   -1.5665   -2.2327    1.4689 H   0  0  0  0  0  0  0  0  0  0  0  0
   -2.1532    0.4217    2.1705 H   0  0  0  0  0  0  0  0  0  0  0  0
   -3.5103   -1.9417   -0.0072 H   0  0  0  0  0  0  0  0  0  0  0  0
   -4.2950   -0.5140    2.2513 H   0  0  0  0  0  0  0  0  0  0  0  0
   -4.2437    0.2799   -0.6810 H   0  0  0  0  0  0  0  0  0  0  0  0
   -3.6324    2.0509    0.7250 H   0  0  0  0  0  0  0  0  0  0  0  0
   -1.6205    1.3735   -0.2602 H   0  0  0  0  0  0  0  0  0  0  0  0
   -2.3927   -0.6691   -2.7058 H   0  0  0  0  0  0  0  0  0  0  0  0
  1 16  1  6  0  0  0
  1  2  1  0  0  0  0
  2 19  1  0  0  0  0
  3  4  1  0  0  0  0
  3  2  1  0  0  0  0
  4  5  2  0  0  0  0
  5  6  1  0  0  0  0
  5 22  1  0  0  0  0
  6 23  1  0  0  0  0
  7 24  1  0  0  0  0
  7  6  2  0  0  0  0
  8  7  1  0  0  0  0
  9  8  2  0  0  0  0
  9  4  1  0  0  0  0
 10  1  1  6  0  0  0
 10 27  1  0  0  0  0
 10 11  1  0  0  0  0
 12 14  1  6  0  0  0
 12 10  1  0  0  0  0
 12 13  1  0  0  0  0
 13 30  1  0  0  0  0
 14 16  1  6  0  0  0
 14 15  1  0  0  0  0
 16 33  1  1  0  0  0
 17 16  1  0  0  0  0
 18  1  1  0  0  0  0
 20  3  1  0  0  0  0
 21  3  1  0  0  0  0
 25  8  1  0  0  0  0
 26  9  1  0  0  0  0
 28 11  1  0  0  0  0
 29 12  1  0  0  0  0
 31 14  1  0  0  0  0
 32 15  1  0  0  0  0
 34 17  1  0  0  0  0
M  END
