omegapdb_1m5f_22.xyz
 OpenBabel12161914463D

 25 25  0  0  1  0  0  0  0  0999 V2000
   -0.5600   -2.1318   -2.3131 O   0  0  0  0  0  0  0  0  0  0  0  0
   -0.8627   -2.4738   -1.0429 C   0  0  0  0  0  0  0  0  0  0  0  0
   -0.7891   -3.6001   -0.6296 O   0  0  0  0  0  0  0  0  0  0  0  0
   -1.2976   -1.2834   -0.2502 C   0  0  0  0  0  0  0  0  0  0  0  0
   -2.2080   -1.4443    0.6724 N   0  0  0  0  0  0  0  0  0  0  0  0
   -2.4228   -0.1986    1.1902 O   0  0  0  0  0  0  0  0  0  0  0  0
   -1.6386    0.7038    0.5753 C   0  0  0  0  0  0  0  0  0  0  0  0
   -0.8513    0.0730   -0.3445 C   0  0  0  0  0  0  0  0  0  0  0  0
    0.3751    0.5828   -1.0406 C   0  0  0  0  0  0  0  0  0  0  0  0
    1.6523    0.1494   -0.3049 C   0  0  2  0  0  0  0  0  0  0  0  0
    1.7271   -1.2970   -0.2073 N   0  0  0  0  0  0  0  0  0  0  0  0
    1.7298    0.7244    1.0999 C   0  0  0  0  0  0  0  0  0  0  0  0
    2.1240    0.1240    2.0710 O   0  0  0  0  0  0  0  0  0  0  0  0
    1.3767    2.0225    1.1528 O   0  0  0  0  0  0  0  0  0  0  0  0
   -1.7888    2.1136    1.0200 C   0  0  0  0  0  0  0  0  0  0  0  0
   -0.2932   -2.9537   -2.7580 H   0  0  0  0  0  0  0  0  0  0  0  0
    0.4129    0.1666   -2.0486 H   0  0  0  0  0  0  0  0  0  0  0  0
    0.3519    1.6738   -1.1240 H   0  0  0  0  0  0  0  0  0  0  0  0
    2.5166    0.5877   -0.8343 H   0  0  0  0  0  0  0  0  0  0  0  0
    2.2504   -1.5610    0.6221 H   0  0  0  0  0  0  0  0  0  0  0  0
    2.1788   -1.6968   -1.0208 H   0  0  0  0  0  0  0  0  0  0  0  0
    1.5032    2.2936    2.0780 H   0  0  0  0  0  0  0  0  0  0  0  0
   -2.8325    2.4326    0.9579 H   0  0  0  0  0  0  0  0  0  0  0  0
   -1.4807    2.2124    2.0649 H   0  0  0  0  0  0  0  0  0  0  0  0
   -1.1736    2.7802    0.4143 H   0  0  0  0  0  0  0  0  0  0  0  0
  1  2  1  0  0  0  0
  2  3  2  0  0  0  0
  2  4  1  0  0  0  0
  4  5  2  0  0  0  0
  5  6  1  0  0  0  0
  7 15  1  0  0  0  0
  7  6  1  0  0  0  0
  8  4  1  0  0  0  0
  8  7  2  0  0  0  0
  9  8  1  0  0  0  0
  9 10  1  0  0  0  0
 10 19  1  6  0  0  0
 10 11  1  0  0  0  0
 10 12  1  0  0  0  0
 11 20  1  0  0  0  0
 12 14  1  0  0  0  0
 12 13  2  0  0  0  0
 14 22  1  0  0  0  0
 15 24  1  0  0  0  0
 16  1  1  0  0  0  0
 17  9  1  0  0  0  0
 18  9  1  0  0  0  0
 21 11  1  0  0  0  0
 23 15  1  0  0  0  0
 25 15  1  0  0  0  0
M  END
