omegapdb_2byh_18.xyz
 OpenBabel12161914463D

 40 42  0  0  0  0  0  0  0  0999 V2000
    5.2895    2.4054   -0.1941 O   0  0  0  0  0  0  0  0  0  0  0  0
    5.2583    1.6168    0.7317 C   0  0  0  0  0  0  0  0  0  0  0  0
    6.5143    1.2795    1.5062 C   0  0  0  0  0  0  0  0  0  0  0  0
    3.9718    0.9623    1.1229 C   0  0  0  0  0  0  0  0  0  0  0  0
    3.8703    0.0446    2.1704 C   0  0  0  0  0  0  0  0  0  0  0  0
    2.6514   -0.5374    2.4838 C   0  0  0  0  0  0  0  0  0  0  0  0
    1.5083   -0.2273    1.7424 C   0  0  0  0  0  0  0  0  0  0  0  0
    1.5977    0.7117    0.7090 C   0  0  0  0  0  0  0  0  0  0  0  0
    2.8188    1.2888    0.4055 C   0  0  0  0  0  0  0  0  0  0  0  0
    0.3002   -0.8684    2.0883 N   0  0  0  0  0  0  0  0  0  0  0  0
   -0.8183   -1.2326    1.3535 C   0  0  0  0  0  0  0  0  0  0  0  0
   -1.8557   -1.4686    1.9534 O   0  0  0  0  0  0  0  0  0  0  0  0
   -0.6832   -1.3726   -0.1200 C   0  0  0  0  0  0  0  0  0  0  0  0
    0.4107   -1.9664   -0.7881 C   0  0  0  0  0  0  0  0  0  0  0  0
    0.1883   -2.1222   -2.0777 N   0  0  0  0  0  0  0  0  0  0  0  0
   -1.0410   -1.6291   -2.2597 N   0  0  0  0  0  0  0  0  0  0  0  0
   -1.6259   -1.1466   -1.1358 C   0  0  0  0  0  0  0  0  0  0  0  0
   -2.9268   -0.4562   -1.1284 C   0  0  0  0  0  0  0  0  0  0  0  0
   -3.2613    0.4255   -0.0955 C   0  0  0  0  0  0  0  0  0  0  0  0
   -4.4672    1.1004   -0.0624 C   0  0  0  0  0  0  0  0  0  0  0  0
   -4.8382    2.1741    1.2455 Cl  0  0  0  0  0  0  0  0  0  0  0  0
   -5.4000    0.9204   -1.0879 C   0  0  0  0  0  0  0  0  0  0  0  0
   -6.5677    1.5958   -1.0241 O   0  0  0  0  0  0  0  0  0  0  0  0
   -5.0890    0.0565   -2.1338 C   0  0  0  0  0  0  0  0  0  0  0  0
   -3.8715   -0.6109   -2.1582 C   0  0  0  0  0  0  0  0  0  0  0  0
   -3.5576   -1.4316   -3.2023 O   0  0  0  0  0  0  0  0  0  0  0  0
    7.3453    1.8449    1.0819 H   0  0  0  0  0  0  0  0  0  0  0  0
    6.7331    0.2076    1.4464 H   0  0  0  0  0  0  0  0  0  0  0  0
    6.4010    1.5359    2.5654 H   0  0  0  0  0  0  0  0  0  0  0  0
    4.7461   -0.2201    2.7567 H   0  0  0  0  0  0  0  0  0  0  0  0
    2.5790   -1.2514    3.3007 H   0  0  0  0  0  0  0  0  0  0  0  0
    0.7144    0.9649    0.1288 H   0  0  0  0  0  0  0  0  0  0  0  0
    2.9004    2.0060   -0.4048 H   0  0  0  0  0  0  0  0  0  0  0  0
    0.1416   -1.0085    3.0781 H   0  0  0  0  0  0  0  0  0  0  0  0
    1.3535   -2.2773   -0.3597 H   0  0  0  0  0  0  0  0  0  0  0  0
   -1.4914   -1.6938   -3.1608 H   0  0  0  0  0  0  0  0  0  0  0  0
   -2.5637    0.5921    0.7153 H   0  0  0  0  0  0  0  0  0  0  0  0
   -7.0992    1.3796   -1.8017 H   0  0  0  0  0  0  0  0  0  0  0  0
   -5.8085   -0.0863   -2.9432 H   0  0  0  0  0  0  0  0  0  0  0  0
   -4.3279   -1.5055   -3.7815 H   0  0  0  0  0  0  0  0  0  0  0  0
  1  2  2  0  0  0  0
  2  4  1  0  0  0  0
  2  3  1  0  0  0  0
  3 29  1  0  0  0  0
  4  5  2  0  0  0  0
  5  6  1  0  0  0  0
  5 30  1  0  0  0  0
  6 31  1  0  0  0  0
  7 10  1  0  0  0  0
  7  6  2  0  0  0  0
  8  7  1  0  0  0  0
  9  8  2  0  0  0  0
  9  4  1  0  0  0  0
 10 34  1  0  0  0  0
 11 12  2  0  0  0  0
 11 10  1  0  0  0  0
 13 11  1  0  0  0  0
 14 35  1  0  0  0  0
 14 13  1  0  0  0  0
 15 14  2  0  0  0  0
 16 15  1  0  0  0  0
 16 17  1  0  0  0  0
 17 18  1  0  0  0  0
 17 13  2  0  0  0  0
 18 19  2  0  0  0  0
 19 20  1  0  0  0  0
 19 37  1  0  0  0  0
 20 21  1  0  0  0  0
 22 23  1  0  0  0  0
 22 20  2  0  0  0  0
 24 22  1  0  0  0  0
 25 24  2  0  0  0  0
 25 18  1  0  0  0  0
 26 25  1  0  0  0  0
 27  3  1  0  0  0  0
 28  3  1  0  0  0  0
 32  8  1  0  0  0  0
 33  9  1  0  0  0  0
 36 16  1  0  0  0  0
 38 23  1  0  0  0  0
 39 24  1  0  0  0  0
 40 26  1  0  0  0  0
M  END
