omegapdb_1qxw_11.xyz
 OpenBabel12161914463D

 36 36  0  0  1  0  0  0  0  0999 V2000
    3.7537    1.9643    0.0288 C   0  0  0  0  0  0  0  0  0  0  0  0
    4.6080    1.3185    1.0858 C   0  0  0  0  0  0  0  0  0  0  0  0
    3.8547    0.4629    0.1124 C   0  0  0  0  0  0  0  0  0  0  0  0
    2.7619   -0.3545    0.5610 N   0  0  0  0  0  0  0  0  0  0  0  0
    1.4870   -0.1375   -0.1205 C   0  0  0  0  0  0  0  0  0  0  0  0
    0.5761   -1.3056    0.2569 C   0  0  0  0  0  0  0  0  0  0  0  0
   -0.7362   -1.3325   -0.5542 C   0  0  1  0  0  0  0  0  0  0  0  0
   -1.5438   -2.5046   -0.2442 N   0  0  0  0  0  0  0  0  0  0  0  0
   -1.5772   -0.0659   -0.3931 C   0  0  0  0  0  0  0  0  0  0  0  0
   -2.8066   -0.0809   -1.3047 C   0  0  0  0  0  0  0  0  0  0  0  0
   -3.6924    1.1625   -1.1811 C   0  0  0  0  0  0  0  0  0  0  0  0
   -4.3759    1.3078    0.1787 C   0  0  0  0  0  0  0  0  0  0  0  0
    1.2530   -2.5169   -0.0031 O   0  0  0  0  0  0  0  0  0  0  0  0
    0.3193   -1.1860    1.6522 O   0  0  0  0  0  0  0  0  0  0  0  0
    4.2482    2.4603   -0.8004 H   0  0  0  0  0  0  0  0  0  0  0  0
    2.8234    2.4313    0.3428 H   0  0  0  0  0  0  0  0  0  0  0  0
    5.6884    1.3801    0.9905 H   0  0  0  0  0  0  0  0  0  0  0  0
    4.2541    1.3493    2.1136 H   0  0  0  0  0  0  0  0  0  0  0  0
    4.4522   -0.0156   -0.6624 H   0  0  0  0  0  0  0  0  0  0  0  0
    2.6213   -0.2690    1.5636 H   0  0  0  0  0  0  0  0  0  0  0  0
    1.6506   -0.1337   -1.2035 H   0  0  0  0  0  0  0  0  0  0  0  0
    1.0241    0.8157    0.1636 H   0  0  0  0  0  0  0  0  0  0  0  0
   -0.4375   -1.4156   -1.6107 H   0  0  0  0  0  0  0  0  0  0  0  0
   -1.7895   -2.4826    0.7438 H   0  0  0  0  0  0  0  0  0  0  0  0
   -0.9860   -3.3420   -0.3830 H   0  0  0  0  0  0  0  0  0  0  0  0
   -0.9752    0.8227   -0.6252 H   0  0  0  0  0  0  0  0  0  0  0  0
   -1.8827    0.0285    0.6580 H   0  0  0  0  0  0  0  0  0  0  0  0
   -3.3953   -0.9813   -1.0908 H   0  0  0  0  0  0  0  0  0  0  0  0
   -2.4712   -0.1740   -2.3478 H   0  0  0  0  0  0  0  0  0  0  0  0
   -3.0925    2.0603   -1.3878 H   0  0  0  0  0  0  0  0  0  0  0  0
   -4.4596    1.1257   -1.9652 H   0  0  0  0  0  0  0  0  0  0  0  0
   -4.9866    0.4261    0.4070 H   0  0  0  0  0  0  0  0  0  0  0  0
   -3.6467    1.4253    0.9881 H   0  0  0  0  0  0  0  0  0  0  0  0
   -5.0329    2.1837    0.1986 H   0  0  0  0  0  0  0  0  0  0  0  0
    2.1778   -2.3355    0.2501 H   0  0  0  0  0  0  0  0  0  0  0  0
    0.3342   -2.0915    1.9894 H   0  0  0  0  0  0  0  0  0  0  0  0
  1  3  1  0  0  0  0
  1 16  1  0  0  0  0
  1  2  1  0  0  0  0
  2 18  1  0  0  0  0
  3  4  1  0  0  0  0
  3  2  1  0  0  0  0
  4 20  1  0  0  0  0
  5 22  1  0  0  0  0
  5  6  1  0  0  0  0
  5  4  1  0  0  0  0
  6 14  1  0  0  0  0
  7 23  1  6  0  0  0
  7  9  1  0  0  0  0
  7  8  1  0  0  0  0
  7  6  1  0  0  0  0
  8 24  1  0  0  0  0
  9 27  1  0  0  0  0
 10 11  1  0  0  0  0
 10 28  1  0  0  0  0
 10  9  1  0  0  0  0
 11 12  1  0  0  0  0
 12 34  1  0  0  0  0
 12 32  1  0  0  0  0
 12 33  1  0  0  0  0
 13 35  1  0  0  0  0
 13  6  1  0  0  0  0
 14 36  1  0  0  0  0
 15  1  1  0  0  0  0
 17  2  1  0  0  0  0
 19  3  1  0  0  0  0
 21  5  1  0  0  0  0
 25  8  1  0  0  0  0
 26  9  1  0  0  0  0
 29 10  1  0  0  0  0
 30 11  1  0  0  0  0
 31 11  1  0  0  0  0
M  END
