omegapdb_1qxw_23.xyz
 OpenBabel12161914463D

 36 36  0  0  1  0  0  0  0  0999 V2000
    4.1929    1.7173   -0.3364 C   0  0  0  0  0  0  0  0  0  0  0  0
    5.0893    0.5360   -0.0559 C   0  0  0  0  0  0  0  0  0  0  0  0
    3.6200    0.3315   -0.2327 C   0  0  0  0  0  0  0  0  0  0  0  0
    2.8067   -0.0894    0.8882 N   0  0  0  0  0  0  0  0  0  0  0  0
    1.3738    0.1227    0.6880 C   0  0  0  0  0  0  0  0  0  0  0  0
    0.7593   -1.0965   -0.0121 C   0  0  0  0  0  0  0  0  0  0  0  0
   -0.7674   -1.2090    0.1825 C   0  0  1  0  0  0  0  0  0  0  0  0
   -1.1653   -1.5783    1.5324 N   0  0  0  0  0  0  0  0  0  0  0  0
   -1.5217    0.0318   -0.2890 C   0  0  0  0  0  0  0  0  0  0  0  0
   -3.0322   -0.1935   -0.3316 C   0  0  0  0  0  0  0  0  0  0  0  0
   -3.8158    1.0563   -0.7265 C   0  0  0  0  0  0  0  0  0  0  0  0
   -5.3226    0.8114   -0.7825 C   0  0  0  0  0  0  0  0  0  0  0  0
    1.3401   -2.2758    0.4947 O   0  0  0  0  0  0  0  0  0  0  0  0
    1.0372   -0.9799   -1.4027 O   0  0  0  0  0  0  0  0  0  0  0  0
    3.9989    2.4151    0.4767 H   0  0  0  0  0  0  0  0  0  0  0  0
    4.2333    2.1739   -1.3208 H   0  0  0  0  0  0  0  0  0  0  0  0
    5.5028    0.4340    0.9454 H   0  0  0  0  0  0  0  0  0  0  0  0
    5.7506    0.1885   -0.8455 H   0  0  0  0  0  0  0  0  0  0  0  0
    3.2991   -0.1372   -1.1590 H   0  0  0  0  0  0  0  0  0  0  0  0
    3.1090    0.3917    1.7288 H   0  0  0  0  0  0  0  0  0  0  0  0
    0.9144    0.2392    1.6762 H   0  0  0  0  0  0  0  0  0  0  0  0
    1.1666    1.0247    0.1017 H   0  0  0  0  0  0  0  0  0  0  0  0
   -1.0480   -2.0465   -0.4730 H   0  0  0  0  0  0  0  0  0  0  0  0
   -0.5621   -2.3256    1.8641 H   0  0  0  0  0  0  0  0  0  0  0  0
   -1.0549   -0.7959    2.1736 H   0  0  0  0  0  0  0  0  0  0  0  0
   -1.3066    0.8738    0.3883 H   0  0  0  0  0  0  0  0  0  0  0  0
   -1.1549    0.3239   -1.2818 H   0  0  0  0  0  0  0  0  0  0  0  0
   -3.2602   -0.9994   -1.0453 H   0  0  0  0  0  0  0  0  0  0  0  0
   -3.3674   -0.5520    0.6500 H   0  0  0  0  0  0  0  0  0  0  0  0
   -3.6014    1.8626   -0.0110 H   0  0  0  0  0  0  0  0  0  0  0  0
   -3.4629    1.4108   -1.7054 H   0  0  0  0  0  0  0  0  0  0  0  0
   -5.5674    0.0310   -1.5133 H   0  0  0  0  0  0  0  0  0  0  0  0
   -5.8668    1.7191   -1.0643 H   0  0  0  0  0  0  0  0  0  0  0  0
   -5.7019    0.4815    0.1921 H   0  0  0  0  0  0  0  0  0  0  0  0
    2.2517   -2.0094    0.7314 H   0  0  0  0  0  0  0  0  0  0  0  0
    1.1340   -1.8890   -1.7178 H   0  0  0  0  0  0  0  0  0  0  0  0
  1  3  1  0  0  0  0
  1  2  1  0  0  0  0
  1 15  1  0  0  0  0
  2 17  1  0  0  0  0
  3  2  1  0  0  0  0
  3  4  1  0  0  0  0
  4 20  1  0  0  0  0
  5  4  1  0  0  0  0
  5 21  1  0  0  0  0
  6  7  1  0  0  0  0
  6 13  1  0  0  0  0
  6  5  1  0  0  0  0
  7 23  1  6  0  0  0
  7  8  1  0  0  0  0
  8 24  1  0  0  0  0
  8 25  1  0  0  0  0
  9  7  1  0  0  0  0
  9 26  1  0  0  0  0
 10  9  1  0  0  0  0
 10 29  1  0  0  0  0
 11 10  1  0  0  0  0
 11 30  1  0  0  0  0
 12 11  1  0  0  0  0
 12 34  1  0  0  0  0
 13 35  1  0  0  0  0
 14  6  1  0  0  0  0
 16  1  1  0  0  0  0
 18  2  1  0  0  0  0
 19  3  1  0  0  0  0
 22  5  1  0  0  0  0
 27  9  1  0  0  0  0
 28 10  1  0  0  0  0
 31 11  1  0  0  0  0
 32 12  1  0  0  0  0
 33 12  1  0  0  0  0
 36 14  1  0  0  0  0
M  END
