omegapdb_1m5f_20.xyz
 OpenBabel12161914463D

 25 25  0  0  1  0  0  0  0  0999 V2000
   -1.3185   -3.5718   -1.5172 O   0  0  0  0  0  0  0  0  0  0  0  0
   -0.6610   -2.4097   -1.4872 C   0  0  0  0  0  0  0  0  0  0  0  0
    0.3226   -2.1799   -2.1555 O   0  0  0  0  0  0  0  0  0  0  0  0
   -1.2764   -1.4365   -0.5479 C   0  0  0  0  0  0  0  0  0  0  0  0
   -2.3796   -1.7339    0.0912 N   0  0  0  0  0  0  0  0  0  0  0  0
   -2.6799   -0.6194    0.8275 O   0  0  0  0  0  0  0  0  0  0  0  0
   -1.7673    0.3427    0.6136 C   0  0  0  0  0  0  0  0  0  0  0  0
   -0.8196   -0.1133   -0.2579 C   0  0  0  0  0  0  0  0  0  0  0  0
    0.3618    0.6439   -0.7866 C   0  0  0  0  0  0  0  0  0  0  0  0
    1.3982    1.0518    0.2733 C   0  0  2  0  0  0  0  0  0  0  0  0
    2.2218    2.1320   -0.2407 N   0  0  0  0  0  0  0  0  0  0  0  0
    2.2524   -0.1289    0.7833 C   0  0  0  0  0  0  0  0  0  0  0  0
    3.4317   -0.0201    1.0042 O   0  0  0  0  0  0  0  0  0  0  0  0
    1.6215   -1.2930    0.9994 O   0  0  0  0  0  0  0  0  0  0  0  0
   -1.9524    1.6181    1.3567 C   0  0  0  0  0  0  0  0  0  0  0  0
   -0.8483   -4.1308   -2.1588 H   0  0  0  0  0  0  0  0  0  0  0  0
    0.0214    1.5814   -1.2396 H   0  0  0  0  0  0  0  0  0  0  0  0
    0.8451    0.0665   -1.5807 H   0  0  0  0  0  0  0  0  0  0  0  0
    0.8554    1.4360    1.1483 H   0  0  0  0  0  0  0  0  0  0  0  0
    2.7785    1.7710   -1.0144 H   0  0  0  0  0  0  0  0  0  0  0  0
    2.9065    2.3753    0.4713 H   0  0  0  0  0  0  0  0  0  0  0  0
    0.6832   -1.2216    0.7527 H   0  0  0  0  0  0  0  0  0  0  0  0
   -3.0114    1.8757    1.4246 H   0  0  0  0  0  0  0  0  0  0  0  0
   -1.5664    1.5314    2.3800 H   0  0  0  0  0  0  0  0  0  0  0  0
   -1.4195    2.4333    0.8604 H   0  0  0  0  0  0  0  0  0  0  0  0
  1  2  1  0  0  0  0
  2  4  1  0  0  0  0
  3  2  2  0  0  0  0
  4  8  1  0  0  0  0
  4  5  2  0  0  0  0
  5  6  1  0  0  0  0
  7  6  1  0  0  0  0
  7 15  1  0  0  0  0
  8  7  2  0  0  0  0
  9  8  1  0  0  0  0
  9 10  1  0  0  0  0
 10 12  1  0  0  0  0
 10 19  1  1  0  0  0
 11 10  1  0  0  0  0
 11 21  1  0  0  0  0
 12 14  1  0  0  0  0
 12 13  2  0  0  0  0
 15 23  1  0  0  0  0
 15 24  1  0  0  0  0
 16  1  1  0  0  0  0
 17  9  1  0  0  0  0
 18  9  1  0  0  0  0
 20 11  1  0  0  0  0
 22 14  1  0  0  0  0
 25 15  1  0  0  0  0
M  END
