omegapdb_1z1r_03.xyz
 OpenBabel12161914463D

 66 68  0  0  1  0  0  0  0  0999 V2000
    0.4497   -0.0214    0.2875 C   0  0  2  0  0  0  0  0  0  0  0  0
    0.5274   -0.9593   -0.9408 C   0  0  0  0  0  0  0  0  0  0  0  0
   -0.5800   -1.9900   -0.9659 C   0  0  0  0  0  0  0  0  0  0  0  0
   -1.5095   -2.0264   -2.0088 C   0  0  0  0  0  0  0  0  0  0  0  0
   -2.6093   -2.8786   -1.9673 C   0  0  0  0  0  0  0  0  0  0  0  0
   -2.8034   -3.6895   -0.8500 C   0  0  0  0  0  0  0  0  0  0  0  0
   -1.8320   -3.7411    0.1476 C   0  0  0  0  0  0  0  0  0  0  0  0
   -0.7330   -2.8976    0.0858 C   0  0  0  0  0  0  0  0  0  0  0  0
   -3.9495   -4.4190   -0.6781 O   0  0  0  0  0  0  0  0  0  0  0  0
   -5.1491   -3.6585   -0.5301 C   0  0  0  0  0  0  0  0  0  0  0  0
   -5.1463   -2.6869    0.6550 C   0  0  0  0  0  0  0  0  0  0  0  0
   -4.5727   -1.3070    0.3298 C   0  0  0  0  0  0  0  0  0  0  0  0
   -4.3831   -0.4656    1.5811 C   0  0  0  0  0  0  0  0  0  0  0  0
   -4.9105   -0.7411    2.6424 O   0  0  0  0  0  0  0  0  0  0  0  0
   -3.5251    0.6136    1.4771 N   0  0  0  0  0  0  0  0  0  0  0  0
   -3.1796    1.2971    0.2418 C   0  0  2  0  0  0  0  0  0  0  0  0
   -1.6823    1.2307   -0.1315 C   0  0  0  0  0  0  0  0  0  0  0  0
   -1.2729    1.9463   -1.0550 O   0  0  0  0  0  0  0  0  0  0  0  0
   -0.9244    0.3928    0.5883 N   0  0  0  0  0  0  0  0  0  0  0  0
   -3.6361    2.7673    0.2838 C   0  0  0  0  0  0  0  0  0  0  0  0
   -2.9556    3.4922    1.4339 C   0  0  0  0  0  0  0  0  0  0  0  0
   -3.3024    3.3228    2.5968 O   0  0  0  0  0  0  0  0  0  0  0  0
   -1.9330    4.3113    1.0825 N   0  0  0  0  0  0  0  0  0  0  0  0
    1.4047    1.1985    0.1910 C   0  0  2  0  0  0  0  0  0  0  0  0
    1.4080    1.7918   -1.0841 O   0  0  0  0  0  0  0  0  0  0  0  0
    2.8553    0.8214    0.4937 C   0  0  0  0  0  0  0  0  0  0  0  0
    3.4273    0.1269   -0.6456 N   0  0  0  0  0  0  0  0  0  0  0  0
    4.8368   -0.7205   -0.4937 S   0  0  0  0  0  0  0  0  0  0  0  0
    4.7140   -1.5110    0.7182 O   0  0  0  0  0  0  0  0  0  0  0  0
    5.0841   -1.3237   -1.7912 O   0  0  0  0  0  0  0  0  0  0  0  0
    6.0882    0.5059   -0.2108 C   0  0  0  0  0  0  0  0  0  0  0  0
    6.3871    0.8992    1.0911 C   0  0  0  0  0  0  0  0  0  0  0  0
    7.3608    1.8694    1.2983 C   0  0  0  0  0  0  0  0  0  0  0  0
    8.0241    2.4363    0.2124 C   0  0  0  0  0  0  0  0  0  0  0  0
    7.7159    2.0332   -1.0845 C   0  0  0  0  0  0  0  0  0  0  0  0
    6.7471    1.0602   -1.3035 C   0  0  0  0  0  0  0  0  0  0  0  0
    0.7521   -0.5889    1.1748 H   0  0  0  0  0  0  0  0  0  0  0  0
    0.4929   -0.3505   -1.8494 H   0  0  0  0  0  0  0  0  0  0  0  0
    1.5019   -1.4630   -0.9257 H   0  0  0  0  0  0  0  0  0  0  0  0
   -1.3921   -1.3521   -2.8543 H   0  0  0  0  0  0  0  0  0  0  0  0
   -3.3318   -2.8926   -2.7816 H   0  0  0  0  0  0  0  0  0  0  0  0
   -1.9827   -4.4135    0.9885 H   0  0  0  0  0  0  0  0  0  0  0  0
    0.0037   -2.9330    0.8871 H   0  0  0  0  0  0  0  0  0  0  0  0
   -5.9257   -4.4166   -0.4041 H   0  0  0  0  0  0  0  0  0  0  0  0
   -5.3621   -3.1156   -1.4638 H   0  0  0  0  0  0  0  0  0  0  0  0
   -4.5915   -3.1393    1.4848 H   0  0  0  0  0  0  0  0  0  0  0  0
   -6.1740   -2.5498    1.0122 H   0  0  0  0  0  0  0  0  0  0  0  0
   -5.2538   -0.7774   -0.3533 H   0  0  0  0  0  0  0  0  0  0  0  0
   -3.6088   -1.3703   -0.1831 H   0  0  0  0  0  0  0  0  0  0  0  0
   -3.5497    1.2127    2.3006 H   0  0  0  0  0  0  0  0  0  0  0  0
   -3.7016    0.8181   -0.5946 H   0  0  0  0  0  0  0  0  0  0  0  0
   -1.4240   -0.1283    1.2981 H   0  0  0  0  0  0  0  0  0  0  0  0
   -4.7137    2.7914    0.4679 H   0  0  0  0  0  0  0  0  0  0  0  0
   -3.4275    3.2453   -0.6760 H   0  0  0  0  0  0  0  0  0  0  0  0
   -1.5255    4.2411    0.1622 H   0  0  0  0  0  0  0  0  0  0  0  0
   -1.3797    4.7095    1.8270 H   0  0  0  0  0  0  0  0  0  0  0  0
    1.0653    1.9240    0.9465 H   0  0  0  0  0  0  0  0  0  0  0  0
    0.4712    2.0128   -1.2756 H   0  0  0  0  0  0  0  0  0  0  0  0
    3.4239    1.7319    0.7298 H   0  0  0  0  0  0  0  0  0  0  0  0
    2.9141    0.1633    1.3650 H   0  0  0  0  0  0  0  0  0  0  0  0
    3.2722    0.5559   -1.5512 H   0  0  0  0  0  0  0  0  0  0  0  0
    5.8721    0.4346    1.9277 H   0  0  0  0  0  0  0  0  0  0  0  0
    7.6054    2.1832    2.3091 H   0  0  0  0  0  0  0  0  0  0  0  0
    8.7863    3.1933    0.3773 H   0  0  0  0  0  0  0  0  0  0  0  0
    8.2336    2.4767   -1.9304 H   0  0  0  0  0  0  0  0  0  0  0  0
    6.5085    0.7171   -2.3068 H   0  0  0  0  0  0  0  0  0  0  0  0
  1 19  1  0  0  0  0
  1 37  1  1  0  0  0
  2 39  1  0  0  0  0
  2  1  1  0  0  0  0
  3  2  1  0  0  0  0
  3  8  2  0  0  0  0
  4  5  2  0  0  0  0
  4  3  1  0  0  0  0
  5  6  1  0  0  0  0
  6  9  1  0  0  0  0
  6  7  2  0  0  0  0
  7 42  1  0  0  0  0
  8  7  1  0  0  0  0
  8 43  1  0  0  0  0
  9 10  1  0  0  0  0
 10 44  1  0  0  0  0
 10 11  1  0  0  0  0
 11 47  1  0  0  0  0
 11 46  1  0  0  0  0
 12 11  1  0  0  0  0
 12 13  1  0  0  0  0
 13 14  2  0  0  0  0
 15 13  1  0  0  0  0
 15 50  1  0  0  0  0
 16 51  1  6  0  0  0
 16 20  1  0  0  0  0
 16 15  1  0  0  0  0
 17 16  1  0  0  0  0
 17 19  1  0  0  0  0
 18 17  2  0  0  0  0
 19 52  1  0  0  0  0
 20 53  1  0  0  0  0
 20 21  1  0  0  0  0
 21 22  2  0  0  0  0
 23 21  1  0  0  0  0
 23 56  1  0  0  0  0
 24  1  1  0  0  0  0
 24 26  1  0  0  0  0
 24 57  1  1  0  0  0
 25 24  1  0  0  0  0
 26 59  1  0  0  0  0
 26 60  1  0  0  0  0
 27 28  1  0  0  0  0
 27 26  1  0  0  0  0
 28 31  1  0  0  0  0
 28 29  2  0  0  0  0
 30 28  2  0  0  0  0
 31 32  2  0  0  0  0
 32 33  1  0  0  0  0
 32 62  1  0  0  0  0
 33 63  1  0  0  0  0
 34 64  1  0  0  0  0
 34 33  2  0  0  0  0
 35 34  1  0  0  0  0
 36 35  2  0  0  0  0
 36 31  1  0  0  0  0
 38  2  1  0  0  0  0
 40  4  1  0  0  0  0
 41  5  1  0  0  0  0
 45 10  1  0  0  0  0
 48 12  1  0  0  0  0
 49 12  1  0  0  0  0
 54 20  1  0  0  0  0
 55 23  1  0  0  0  0
 58 25  1  0  0  0  0
 61 27  1  0  0  0  0
 65 35  1  0  0  0  0
 66 36  1  0  0  0  0
M  END
