omegapdb_1qxw_34.xyz
 OpenBabel12161914463D

 36 36  0  0  1  0  0  0  0  0999 V2000
    4.2333    1.6077   -0.5520 C   0  0  0  0  0  0  0  0  0  0  0  0
    4.0527    0.2225   -1.1065 C   0  0  0  0  0  0  0  0  0  0  0  0
    3.8279    0.4908    0.3558 C   0  0  0  0  0  0  0  0  0  0  0  0
    2.4692    0.4940    0.8027 N   0  0  0  0  0  0  0  0  0  0  0  0
    1.9491   -0.8236    1.1149 C   0  0  0  0  0  0  0  0  0  0  0  0
    0.4211   -0.7664    1.2400 C   0  0  0  0  0  0  0  0  0  0  0  0
   -0.2505   -0.4052   -0.1110 C   0  0  1  0  0  0  0  0  0  0  0  0
   -0.1992   -1.6221   -0.9405 N   0  0  0  0  0  0  0  0  0  0  0  0
   -1.6968    0.0423    0.1207 C   0  0  0  0  0  0  0  0  0  0  0  0
   -2.4242    0.4496   -1.1638 C   0  0  0  0  0  0  0  0  0  0  0  0
   -3.7980    1.0866   -0.9283 C   0  0  0  0  0  0  0  0  0  0  0  0
   -4.8153    0.1351   -0.3011 C   0  0  0  0  0  0  0  0  0  0  0  0
    0.1515    0.2056    2.2236 O   0  0  0  0  0  0  0  0  0  0  0  0
   -0.0931   -1.9951    1.7014 O   0  0  0  0  0  0  0  0  0  0  0  0
    5.2391    2.0058   -0.4597 H   0  0  0  0  0  0  0  0  0  0  0  0
    3.4711    2.3436   -0.7849 H   0  0  0  0  0  0  0  0  0  0  0  0
    4.9306   -0.3423   -1.4071 H   0  0  0  0  0  0  0  0  0  0  0  0
    3.1577    0.0405   -1.6980 H   0  0  0  0  0  0  0  0  0  0  0  0
    4.5921    0.1145    1.0433 H   0  0  0  0  0  0  0  0  0  0  0  0
    2.3419    1.1211    1.5919 H   0  0  0  0  0  0  0  0  0  0  0  0
    2.2470   -1.5162    0.3187 H   0  0  0  0  0  0  0  0  0  0  0  0
    2.3148   -1.2301    2.0684 H   0  0  0  0  0  0  0  0  0  0  0  0
    0.3171    0.4161   -0.5764 H   0  0  0  0  0  0  0  0  0  0  0  0
   -0.9609   -1.6326   -1.6104 H   0  0  0  0  0  0  0  0  0  0  0  0
    0.6595   -1.6594   -1.4830 H   0  0  0  0  0  0  0  0  0  0  0  0
   -2.2319   -0.7694    0.6349 H   0  0  0  0  0  0  0  0  0  0  0  0
   -1.6876    0.8955    0.8102 H   0  0  0  0  0  0  0  0  0  0  0  0
   -2.5611   -0.4266   -1.8147 H   0  0  0  0  0  0  0  0  0  0  0  0
   -1.7922    1.1538   -1.7222 H   0  0  0  0  0  0  0  0  0  0  0  0
   -4.1868    1.4434   -1.8902 H   0  0  0  0  0  0  0  0  0  0  0  0
   -3.6884    1.9771   -0.2946 H   0  0  0  0  0  0  0  0  0  0  0  0
   -5.8039    0.6009   -0.2304 H   0  0  0  0  0  0  0  0  0  0  0  0
   -4.9200   -0.7778   -0.8993 H   0  0  0  0  0  0  0  0  0  0  0  0
   -4.5182   -0.1629    0.7100 H   0  0  0  0  0  0  0  0  0  0  0  0
   -0.5529   -0.1855    2.7554 H   0  0  0  0  0  0  0  0  0  0  0  0
   -0.1948   -2.5309    0.8897 H   0  0  0  0  0  0  0  0  0  0  0  0
  1 15  1  0  0  0  0
  1  3  1  0  0  0  0
  2  1  1  0  0  0  0
  2  3  1  0  0  0  0
  3  4  1  0  0  0  0
  3 19  1  0  0  0  0
  4  5  1  0  0  0  0
  4 20  1  0  0  0  0
  5  6  1  0  0  0  0
  5 22  1  0  0  0  0
  6 14  1  0  0  0  0
  6 13  1  0  0  0  0
  7 23  1  6  0  0  0
  7  9  1  0  0  0  0
  7  6  1  0  0  0  0
  8  7  1  0  0  0  0
  9 26  1  0  0  0  0
  9 27  1  0  0  0  0
 10 11  1  0  0  0  0
 10  9  1  0  0  0  0
 11 12  1  0  0  0  0
 11 31  1  0  0  0  0
 12 32  1  0  0  0  0
 12 34  1  0  0  0  0
 13 35  1  0  0  0  0
 16  1  1  0  0  0  0
 17  2  1  0  0  0  0
 18  2  1  0  0  0  0
 21  5  1  0  0  0  0
 24  8  1  0  0  0  0
 25  8  1  0  0  0  0
 28 10  1  0  0  0  0
 29 10  1  0  0  0  0
 30 11  1  0  0  0  0
 33 12  1  0  0  0  0
 36 14  1  0  0  0  0
M  END
