omegapdb_1gs5_14.xyz
 OpenBabel12161914463D

 24 23  0  0  1  0  0  0  0  0999 V2000
   -0.4428   -0.4356   -0.2537 C   0  0  2  0  0  0  0  0  0  0  0  0
   -0.9503   -1.6845    0.4398 C   0  0  0  0  0  0  0  0  0  0  0  0
   -1.9624   -1.7400    1.0983 O   0  0  0  0  0  0  0  0  0  0  0  0
   -0.1492   -2.7447    0.2482 O   0  0  0  0  0  0  0  0  0  0  0  0
    0.7466    0.2103    0.4834 C   0  0  0  0  0  0  0  0  0  0  0  0
    1.9770   -0.6809    0.6005 C   0  0  0  0  0  0  0  0  0  0  0  0
    3.1615    0.0840    1.1622 C   0  0  0  0  0  0  0  0  0  0  0  0
    3.1460    1.2504    1.4490 O   0  0  0  0  0  0  0  0  0  0  0  0
    4.2888   -0.6456    1.3294 O   0  0  0  0  0  0  0  0  0  0  0  0
   -1.5553    0.4755   -0.3620 N   0  0  0  0  0  0  0  0  0  0  0  0
   -1.6179    1.3886   -1.3712 C   0  0  0  0  0  0  0  0  0  0  0  0
   -0.7044    1.5236   -2.1717 O   0  0  0  0  0  0  0  0  0  0  0  0
   -2.8948    2.2027   -1.4089 C   0  0  0  0  0  0  0  0  0  0  0  0
   -0.1154   -0.7033   -1.2640 H   0  0  0  0  0  0  0  0  0  0  0  0
   -0.5621   -3.4861    0.7233 H   0  0  0  0  0  0  0  0  0  0  0  0
    1.0073    1.1083   -0.0839 H   0  0  0  0  0  0  0  0  0  0  0  0
    0.4282    0.5496    1.4748 H   0  0  0  0  0  0  0  0  0  0  0  0
    2.2595   -1.0831   -0.3827 H   0  0  0  0  0  0  0  0  0  0  0  0
    1.7853   -1.5490    1.2408 H   0  0  0  0  0  0  0  0  0  0  0  0
    4.1335   -1.5622    1.0620 H   0  0  0  0  0  0  0  0  0  0  0  0
   -2.3452    0.3049    0.2457 H   0  0  0  0  0  0  0  0  0  0  0  0
   -3.0011    2.8055   -0.5003 H   0  0  0  0  0  0  0  0  0  0  0  0
   -2.8614    2.8623   -2.2761 H   0  0  0  0  0  0  0  0  0  0  0  0
   -3.7712    1.5494   -1.4831 H   0  0  0  0  0  0  0  0  0  0  0  0
  1 14  1  6  0  0  0
  1  2  1  0  0  0  0
  1  5  1  0  0  0  0
  2  3  2  0  0  0  0
  4  2  1  0  0  0  0
  4 15  1  0  0  0  0
  5  6  1  0  0  0  0
  5 17  1  0  0  0  0
  6  7  1  0  0  0  0
  6 19  1  0  0  0  0
  7  9  1  0  0  0  0
  7  8  2  0  0  0  0
 10  1  1  0  0  0  0
 10 21  1  0  0  0  0
 11 10  1  0  0  0  0
 12 11  2  0  0  0  0
 13 11  1  0  0  0  0
 13 22  1  0  0  0  0
 16  5  1  0  0  0  0
 18  6  1  0  0  0  0
 20  9  1  0  0  0  0
 23 13  1  0  0  0  0
 24 13  1  0  0  0  0
M  END
