omegapdb_1m5f_08.xyz
 OpenBabel12161914463D

 25 25  0  0  1  0  0  0  0  0999 V2000
   -2.1707   -2.8874   -2.1581 O   0  0  0  0  0  0  0  0  0  0  0  0
   -1.2355   -2.4151   -1.3277 C   0  0  0  0  0  0  0  0  0  0  0  0
   -0.1786   -2.9698   -1.1232 O   0  0  0  0  0  0  0  0  0  0  0  0
   -1.6484   -1.1447   -0.6827 C   0  0  0  0  0  0  0  0  0  0  0  0
   -2.8321   -0.6287   -0.9119 N   0  0  0  0  0  0  0  0  0  0  0  0
   -2.8858    0.4973   -0.1360 O   0  0  0  0  0  0  0  0  0  0  0  0
   -1.7404    0.6450    0.5527 C   0  0  0  0  0  0  0  0  0  0  0  0
   -0.8802   -0.3635    0.2313 C   0  0  0  0  0  0  0  0  0  0  0  0
    0.5581   -0.4757    0.6281 C   0  0  0  0  0  0  0  0  0  0  0  0
    1.3901    0.6351   -0.0375 C   0  0  2  0  0  0  0  0  0  0  0  0
    1.3713    0.4694   -1.4771 N   0  0  0  0  0  0  0  0  0  0  0  0
    2.8340    0.6509    0.4310 C   0  0  0  0  0  0  0  0  0  0  0  0
    3.7909    0.8179   -0.2870 O   0  0  0  0  0  0  0  0  0  0  0  0
    2.9480    0.5229    1.7669 O   0  0  0  0  0  0  0  0  0  0  0  0
   -1.6596    1.8254    1.4584 C   0  0  0  0  0  0  0  0  0  0  0  0
   -1.8147   -3.7131   -2.5274 H   0  0  0  0  0  0  0  0  0  0  0  0
    0.9378   -1.4472    0.3037 H   0  0  0  0  0  0  0  0  0  0  0  0
    0.6600   -0.4108    1.7165 H   0  0  0  0  0  0  0  0  0  0  0  0
    0.9755    1.6027    0.2993 H   0  0  0  0  0  0  0  0  0  0  0  0
    2.1201    1.0076   -1.8992 H   0  0  0  0  0  0  0  0  0  0  0  0
    0.4847    0.7880   -1.8538 H   0  0  0  0  0  0  0  0  0  0  0  0
    3.8987    0.5864    1.9591 H   0  0  0  0  0  0  0  0  0  0  0  0
   -1.5546    2.7524    0.8821 H   0  0  0  0  0  0  0  0  0  0  0  0
   -0.8011    1.7397    2.1302 H   0  0  0  0  0  0  0  0  0  0  0  0
   -2.5671    1.9148    2.0619 H   0  0  0  0  0  0  0  0  0  0  0  0
  1  2  1  0  0  0  0
  2  3  2  0  0  0  0
  2  4  1  0  0  0  0
  4  8  1  0  0  0  0
  5  4  2  0  0  0  0
  5  6  1  0  0  0  0
  6  7  1  0  0  0  0
  7 15  1  0  0  0  0
  8  7  2  0  0  0  0
  8  9  1  0  0  0  0
  9 18  1  0  0  0  0
 10 19  1  1  0  0  0
 10 12  1  0  0  0  0
 10  9  1  0  0  0  0
 11 10  1  0  0  0  0
 12 14  1  0  0  0  0
 13 12  2  0  0  0  0
 14 22  1  0  0  0  0
 15 25  1  0  0  0  0
 15 24  1  0  0  0  0
 16  1  1  0  0  0  0
 17  9  1  0  0  0  0
 20 11  1  0  0  0  0
 21 11  1  0  0  0  0
 23 15  1  0  0  0  0
M  END
