45.6521
 OpenBabel10231816213D

 40 42  0  0  0  0  0  0  0  0999 V2000
    3.9337    3.5925    2.6469 O   0  0  0  0  0  0  0  0  0  0  0  0
    4.3055    2.5149    2.1560 C   0  0  0  0  0  0  0  0  0  0  0  0
    5.7648    2.1700    2.0464 C   0  0  0  0  0  0  0  0  0  0  0  0
    3.2949    1.5345    1.6617 C   0  0  0  0  0  0  0  0  0  0  0  0
    1.9403    1.8625    1.7697 C   0  0  0  0  0  0  0  0  0  0  0  0
    0.9594    0.9704    1.3235 C   0  0  0  0  0  0  0  0  0  0  0  0
    1.3236   -0.2584    0.7602 C   0  0  0  0  0  0  0  0  0  0  0  0
    2.6715   -0.5802    0.6444 C   0  0  0  0  0  0  0  0  0  0  0  0
    3.6559    0.3074    1.0971 C   0  0  0  0  0  0  0  0  0  0  0  0
    0.2835   -1.0935    0.3150 N   0  0  0  0  0  0  0  0  0  0  0  0
    0.3913   -2.2512   -0.4253 C   0  0  0  0  0  0  0  0  0  0  0  0
    1.4432   -2.8495   -0.6502 O   0  0  0  0  0  0  0  0  0  0  0  0
   -0.8692   -2.8005   -0.9273 C   0  0  0  0  0  0  0  0  0  0  0  0
   -1.0568   -4.1686   -1.2589 C   0  0  0  0  0  0  0  0  0  0  0  0
   -2.3120   -4.4590   -1.6027 N   0  0  0  0  0  0  0  0  0  0  0  0
   -2.9314   -3.2724   -1.5283 N   0  0  0  0  0  0  0  0  0  0  0  0
   -2.1071   -2.2131   -1.1926 C   0  0  0  0  0  0  0  0  0  0  0  0
   -2.6056   -0.8284   -1.2064 C   0  0  0  0  0  0  0  0  0  0  0  0
   -1.7456    0.2326   -1.5363 C   0  0  0  0  0  0  0  0  0  0  0  0
   -2.1868    1.5572   -1.5170 C   0  0  0  0  0  0  0  0  0  0  0  0
   -1.0858    2.8328   -1.8784 Cl  0  0  0  0  0  0  0  0  0  0  0  0
   -3.5111    1.8335   -1.1979 C   0  0  0  0  0  0  0  0  0  0  0  0
   -4.0055    3.1080   -1.1472 O   0  0  0  0  0  0  0  0  0  0  0  0
   -4.3994    0.8014   -0.9137 C   0  0  0  0  0  0  0  0  0  0  0  0
   -3.9471   -0.5192   -0.9287 C   0  0  0  0  0  0  0  0  0  0  0  0
   -4.8218   -1.5425   -0.6725 O   0  0  0  0  0  0  0  0  0  0  0  0
    6.0490    2.0251    1.0008 H   0  0  0  0  0  0  0  0  0  0  0  0
    6.3556    2.9968    2.4554 H   0  0  0  0  0  0  0  0  0  0  0  0
    5.9912    1.2662    2.6182 H   0  0  0  0  0  0  0  0  0  0  0  0
    1.6583    2.8188    2.2078 H   0  0  0  0  0  0  0  0  0  0  0  0
   -0.0894    1.2469    1.4116 H   0  0  0  0  0  0  0  0  0  0  0  0
    2.9772   -1.5291    0.2144 H   0  0  0  0  0  0  0  0  0  0  0  0
    4.6969    0.0151    0.9960 H   0  0  0  0  0  0  0  0  0  0  0  0
   -0.6472   -0.7616    0.5209 H   0  0  0  0  0  0  0  0  0  0  0  0
   -0.3183   -4.9614   -1.2212 H   0  0  0  0  0  0  0  0  0  0  0  0
   -3.9339   -3.2361   -1.7061 H   0  0  0  0  0  0  0  0  0  0  0  0
   -0.7139    0.0351   -1.8135 H   0  0  0  0  0  0  0  0  0  0  0  0
   -3.2808    3.7238   -1.3687 H   0  0  0  0  0  0  0  0  0  0  0  0
   -5.4303    1.0500   -0.6847 H   0  0  0  0  0  0  0  0  0  0  0  0
   -5.6967   -1.1707   -0.4682 H   0  0  0  0  0  0  0  0  0  0  0  0
  2  1  2  0  0  0  0
  3  2  1  0  0  0  0
  3 28  1  0  0  0  0
  3 29  1  0  0  0  0
  4  5  1  0  0  0  0
  4  2  1  0  0  0  0
  5 30  1  0  0  0  0
  6 31  1  0  0  0  0
  6  5  2  0  0  0  0
  7  6  1  0  0  0  0
  8  7  2  0  0  0  0
  8  9  1  0  0  0  0
  9  4  2  0  0  0  0
 10 34  1  0  0  0  0
 10  7  1  0  0  0  0
 11 10  1  0  0  0  0
 12 11  2  0  0  0  0
 13 11  1  0  0  0  0
 14 35  1  0  0  0  0
 14 13  1  0  0  0  0
 15 16  1  0  0  0  0
 15 14  2  0  0  0  0
 16 17  1  0  0  0  0
 17 13  2  0  0  0  0
 18 17  1  0  0  0  0
 18 25  2  0  0  0  0
 19 20  2  0  0  0  0
 19 18  1  0  0  0  0
 20 22  1  0  0  0  0
 21 20  1  0  0  0  0
 22 23  1  0  0  0  0
 22 24  2  0  0  0  0
 24 39  1  0  0  0  0
 25 24  1  0  0  0  0
 25 26  1  0  0  0  0
 26 40  1  0  0  0  0
 27  3  1  0  0  0  0
 32  8  1  0  0  0  0
 33  9  1  0  0  0  0
 36 16  1  0  0  0  0
 37 19  1  0  0  0  0
 38 23  1  0  0  0  0
M  END
