49.2823
 OpenBabel10231816213D

 25 25  0  0  1  0  0  0  0  0999 V2000
    0.0857   -2.8383   -0.5460 O   0  0  0  0  0  0  0  0  0  0  0  0
   -1.2260   -2.7445   -0.2077 C   0  0  0  0  0  0  0  0  0  0  0  0
   -1.8727   -3.7769   -0.0766 O   0  0  0  0  0  0  0  0  0  0  0  0
   -1.7067   -1.3794   -0.0096 C   0  0  0  0  0  0  0  0  0  0  0  0
   -2.9091   -1.1528    0.5441 N   0  0  0  0  0  0  0  0  0  0  0  0
   -3.0368    0.2148    0.6673 O   0  0  0  0  0  0  0  0  0  0  0  0
   -1.9305    0.8187    0.1661 C   0  0  0  0  0  0  0  0  0  0  0  0
   -1.0498   -0.1418   -0.2940 C   0  0  0  0  0  0  0  0  0  0  0  0
    0.3132    0.1243   -0.8471 C   0  0  0  0  0  0  0  0  0  0  0  0
    1.3759    0.1389    0.2616 C   0  0  2  0  0  0  0  0  0  0  0  0
    1.0335    1.1544    1.2897 N   0  0  0  0  0  0  0  0  0  0  0  0
    2.7640    0.4417   -0.2925 C   0  0  0  0  0  0  0  0  0  0  0  0
    3.6063    1.1648    0.2254 O   0  0  0  0  0  0  0  0  0  0  0  0
    3.0770   -0.2713   -1.3960 O   0  0  0  0  0  0  0  0  0  0  0  0
   -1.8494    2.2852    0.2789 C   0  0  0  0  0  0  0  0  0  0  0  0
    0.2224   -3.8058   -0.6279 H   0  0  0  0  0  0  0  0  0  0  0  0
    0.5582   -0.6173   -1.6200 H   0  0  0  0  0  0  0  0  0  0  0  0
    0.3167    1.0866   -1.3742 H   0  0  0  0  0  0  0  0  0  0  0  0
    1.4375   -0.8428    0.7455 H   0  0  0  0  0  0  0  0  0  0  0  0
    1.8753    1.3977    1.8148 H   0  0  0  0  0  0  0  0  0  0  0  0
    0.3723    0.7460    1.9515 H   0  0  0  0  0  0  0  0  0  0  0  0
    4.0050   -0.0149   -1.5796 H   0  0  0  0  0  0  0  0  0  0  0  0
   -1.4842    2.5723    1.2705 H   0  0  0  0  0  0  0  0  0  0  0  0
   -2.8245    2.7471    0.1191 H   0  0  0  0  0  0  0  0  0  0  0  0
   -1.1533    2.6930   -0.4633 H   0  0  0  0  0  0  0  0  0  0  0  0
  1  2  1  0  0  0  0
  2  3  2  0  0  0  0
  2  4  1  0  0  0  0
  4  5  2  0  0  0  0
  5  6  1  0  0  0  0
  7 15  1  0  0  0  0
  7  6  1  0  0  0  0
  8  4  1  0  0  0  0
  8  7  2  0  0  0  0
  9  8  1  0  0  0  0
  9 10  1  0  0  0  0
 10 19  1  1  0  0  0
 10 11  1  0  0  0  0
 11 20  1  0  0  0  0
 11 21  1  0  0  0  0
 12 13  2  0  0  0  0
 12 10  1  0  0  0  0
 14 12  1  0  0  0  0
 15 23  1  0  0  0  0
 16  1  1  0  0  0  0
 17  9  1  0  0  0  0
 18  9  1  0  0  0  0
 22 14  1  0  0  0  0
 24 15  1  0  0  0  0
 25 15  1  0  0  0  0
M  END
