-9.65567
 OpenBabel10231816213D

 66 68  0  0  1  0  0  0  0  0999 V2000
    0.8370   -1.2058   -0.4777 C   0  0  2  0  0  0  0  0  0  0  0  0
    0.5653   -2.6884   -0.7965 C   0  0  0  0  0  0  0  0  0  0  0  0
   -0.8022   -3.1098   -0.2967 C   0  0  0  0  0  0  0  0  0  0  0  0
   -1.7837   -3.5924   -1.1730 C   0  0  0  0  0  0  0  0  0  0  0  0
   -3.0881   -3.8301   -0.7184 C   0  0  0  0  0  0  0  0  0  0  0  0
   -3.4226   -3.5654    0.6065 C   0  0  0  0  0  0  0  0  0  0  0  0
   -2.4356   -3.1577    1.4975 C   0  0  0  0  0  0  0  0  0  0  0  0
   -1.1335   -2.9386    1.0530 C   0  0  0  0  0  0  0  0  0  0  0  0
   -4.6659   -3.7373    1.1362 O   0  0  0  0  0  0  0  0  0  0  0  0
   -5.7603   -3.1271    0.4477 C   0  0  0  0  0  0  0  0  0  0  0  0
   -5.7687   -1.5916    0.5169 C   0  0  0  0  0  0  0  0  0  0  0  0
   -4.9309   -0.9137   -0.5805 C   0  0  0  0  0  0  0  0  0  0  0  0
   -3.7513   -0.1084   -0.0484 C   0  0  0  0  0  0  0  0  0  0  0  0
   -3.4418   -0.0389    1.1304 O   0  0  0  0  0  0  0  0  0  0  0  0
   -3.0558    0.5427   -1.0462 N   0  0  0  0  0  0  0  0  0  0  0  0
   -1.9150    1.4223   -0.7621 C   0  0  2  0  0  0  0  0  0  0  0  0
   -0.7832    0.6112   -0.1212 C   0  0  0  0  0  0  0  0  0  0  0  0
   -0.2852    0.8607    0.9855 O   0  0  0  0  0  0  0  0  0  0  0  0
   -0.2495   -0.3619   -0.9401 N   0  0  0  0  0  0  0  0  0  0  0  0
   -2.2098    2.6535    0.0870 C   0  0  0  0  0  0  0  0  0  0  0  0
   -0.9716    3.5265    0.0340 C   0  0  0  0  0  0  0  0  0  0  0  0
   -0.4983    3.9200   -1.0290 O   0  0  0  0  0  0  0  0  0  0  0  0
   -0.3718    3.8011    1.2240 N   0  0  0  0  0  0  0  0  0  0  0  0
    2.1961   -0.7439   -1.0468 C   0  0  2  0  0  0  0  0  0  0  0  0
    3.2508   -1.5443   -0.4909 O   0  0  0  0  0  0  0  0  0  0  0  0
    2.5002    0.7372   -0.7422 C   0  0  0  0  0  0  0  0  0  0  0  0
    2.5268    0.9296    0.7321 N   0  0  0  0  0  0  0  0  0  0  0  0
    3.1832    2.3736    1.3120 S   0  0  0  0  0  0  0  0  0  0  0  0
    2.4716    3.4591    0.6766 O   0  0  0  0  0  0  0  0  0  0  0  0
    3.2203    2.2508    2.7530 O   0  0  0  0  0  0  0  0  0  0  0  0
    4.8415    2.3422    0.7044 C   0  0  0  0  0  0  0  0  0  0  0  0
    5.7541    1.4278    1.2310 C   0  0  0  0  0  0  0  0  0  0  0  0
    7.0609    1.4116    0.7421 C   0  0  0  0  0  0  0  0  0  0  0  0
    7.4475    2.3060   -0.2595 C   0  0  0  0  0  0  0  0  0  0  0  0
    6.5296    3.2202   -0.7783 C   0  0  0  0  0  0  0  0  0  0  0  0
    5.2221    3.2405   -0.2965 C   0  0  0  0  0  0  0  0  0  0  0  0
    0.9011   -1.1268    0.6164 H   0  0  0  0  0  0  0  0  0  0  0  0
    1.3362   -3.3118   -0.3304 H   0  0  0  0  0  0  0  0  0  0  0  0
    0.6342   -2.8464   -1.8806 H   0  0  0  0  0  0  0  0  0  0  0  0
   -1.5454   -3.7747   -2.2165 H   0  0  0  0  0  0  0  0  0  0  0  0
   -3.8316   -4.2136   -1.4096 H   0  0  0  0  0  0  0  0  0  0  0  0
   -2.6896   -2.9677    2.5373 H   0  0  0  0  0  0  0  0  0  0  0  0
   -0.3914   -2.5846    1.7642 H   0  0  0  0  0  0  0  0  0  0  0  0
   -5.8660   -3.4937   -0.5786 H   0  0  0  0  0  0  0  0  0  0  0  0
   -6.6482   -3.4874    0.9864 H   0  0  0  0  0  0  0  0  0  0  0  0
   -6.8085   -1.2620    0.3885 H   0  0  0  0  0  0  0  0  0  0  0  0
   -5.4582   -1.2690    1.5157 H   0  0  0  0  0  0  0  0  0  0  0  0
   -4.5583   -1.6404   -1.3098 H   0  0  0  0  0  0  0  0  0  0  0  0
   -5.5675   -0.2193   -1.1426 H   0  0  0  0  0  0  0  0  0  0  0  0
   -3.4504    0.5677   -1.9751 H   0  0  0  0  0  0  0  0  0  0  0  0
   -1.5628    1.7449   -1.7516 H   0  0  0  0  0  0  0  0  0  0  0  0
   -0.7735   -0.6267   -1.7695 H   0  0  0  0  0  0  0  0  0  0  0  0
   -2.4616    2.3835    1.1181 H   0  0  0  0  0  0  0  0  0  0  0  0
   -3.0431    3.2259   -0.3338 H   0  0  0  0  0  0  0  0  0  0  0  0
   -0.5675    3.2239    2.0343 H   0  0  0  0  0  0  0  0  0  0  0  0
    0.5944    4.1246    1.1466 H   0  0  0  0  0  0  0  0  0  0  0  0
    2.2080   -0.8984   -2.1318 H   0  0  0  0  0  0  0  0  0  0  0  0
    3.4054   -1.1805    0.4047 H   0  0  0  0  0  0  0  0  0  0  0  0
    3.4885    0.9619   -1.1503 H   0  0  0  0  0  0  0  0  0  0  0  0
    1.7601    1.3955   -1.2047 H   0  0  0  0  0  0  0  0  0  0  0  0
    1.5705    0.8837    1.1320 H   0  0  0  0  0  0  0  0  0  0  0  0
    5.4519    0.7368    2.0143 H   0  0  0  0  0  0  0  0  0  0  0  0
    7.7826    0.7057    1.1462 H   0  0  0  0  0  0  0  0  0  0  0  0
    8.4695    2.2946   -0.6319 H   0  0  0  0  0  0  0  0  0  0  0  0
    6.8327    3.9202   -1.5534 H   0  0  0  0  0  0  0  0  0  0  0  0
    4.5066    3.9530   -0.7008 H   0  0  0  0  0  0  0  0  0  0  0  0
  1 37  1  1  0  0  0
  2  1  1  0  0  0  0
  2 38  1  0  0  0  0
  2  3  1  0  0  0  0
  3  8  2  0  0  0  0
  4  5  2  0  0  0  0
  4  3  1  0  0  0  0
  5  6  1  0  0  0  0
  6  9  1  0  0  0  0
  6  7  2  0  0  0  0
  7 42  1  0  0  0  0
  8  7  1  0  0  0  0
  8 43  1  0  0  0  0
 10 11  1  0  0  0  0
 10 45  1  0  0  0  0
 10  9  1  0  0  0  0
 11 47  1  0  0  0  0
 12 13  1  0  0  0  0
 12 11  1  0  0  0  0
 13 14  2  0  0  0  0
 15 16  1  0  0  0  0
 15 13  1  0  0  0  0
 16 51  1  6  0  0  0
 16 17  1  0  0  0  0
 16 20  1  0  0  0  0
 17 18  2  0  0  0  0
 19  1  1  0  0  0  0
 19 17  1  0  0  0  0
 20 53  1  0  0  0  0
 21 20  1  0  0  0  0
 21 23  1  0  0  0  0
 22 21  2  0  0  0  0
 23 55  1  0  0  0  0
 24 57  1  6  0  0  0
 24 26  1  0  0  0  0
 24 25  1  0  0  0  0
 24  1  1  0  0  0  0
 25 58  1  0  0  0  0
 26 27  1  0  0  0  0
 27 61  1  0  0  0  0
 27 28  1  0  0  0  0
 28 30  2  0  0  0  0
 29 28  2  0  0  0  0
 31 32  2  0  0  0  0
 31 28  1  0  0  0  0
 32 62  1  0  0  0  0
 33 63  1  0  0  0  0
 33 32  1  0  0  0  0
 34 33  2  0  0  0  0
 35 36  2  0  0  0  0
 35 34  1  0  0  0  0
 36 31  1  0  0  0  0
 39  2  1  0  0  0  0
 40  4  1  0  0  0  0
 41  5  1  0  0  0  0
 44 10  1  0  0  0  0
 46 11  1  0  0  0  0
 48 12  1  0  0  0  0
 49 12  1  0  0  0  0
 50 15  1  0  0  0  0
 52 19  1  0  0  0  0
 54 20  1  0  0  0  0
 56 23  1  0  0  0  0
 59 26  1  0  0  0  0
 60 26  1  0  0  0  0
 64 34  1  0  0  0  0
 65 35  1  0  0  0  0
 66 36  1  0  0  0  0
M  END
