50.8245
 OpenBabel10231816213D

 36 36  0  0  1  0  0  0  0  0999 V2000
    5.2614    0.6628    0.9235 C   0  0  0  0  0  0  0  0  0  0  0  0
    4.9006    0.1797   -0.4503 C   0  0  0  0  0  0  0  0  0  0  0  0
    4.1280   -0.3034    0.7453 C   0  0  0  0  0  0  0  0  0  0  0  0
    2.7751    0.1509    1.0088 N   0  0  0  0  0  0  0  0  0  0  0  0
    1.8497   -0.0534   -0.1286 C   0  0  0  0  0  0  0  0  0  0  0  0
    0.4265    0.2072    0.4021 C   0  0  0  0  0  0  0  0  0  0  0  0
   -0.6703   -0.1538   -0.6437 C   0  0  1  0  0  0  0  0  0  0  0  0
   -0.6744   -1.5893   -1.0037 N   0  0  0  0  0  0  0  0  0  0  0  0
   -2.0786    0.2128   -0.1240 C   0  0  0  0  0  0  0  0  0  0  0  0
   -3.1456    0.0852   -1.2233 C   0  0  0  0  0  0  0  0  0  0  0  0
   -4.5469    0.4773   -0.7597 C   0  0  0  0  0  0  0  0  0  0  0  0
   -5.1428   -0.4817    0.2614 C   0  0  0  0  0  0  0  0  0  0  0  0
    0.2352   -0.5295    1.6065 O   0  0  0  0  0  0  0  0  0  0  0  0
    0.3484    1.5796    0.7664 O   0  0  0  0  0  0  0  0  0  0  0  0
    6.1777    0.2798    1.3726 H   0  0  0  0  0  0  0  0  0  0  0  0
    5.0531    1.6927    1.1699 H   0  0  0  0  0  0  0  0  0  0  0  0
    5.5434   -0.5412   -0.9383 H   0  0  0  0  0  0  0  0  0  0  0  0
    4.4368    0.8863   -1.1244 H   0  0  0  0  0  0  0  0  0  0  0  0
    4.3131   -1.3270    1.0639 H   0  0  0  0  0  0  0  0  0  0  0  0
    2.7246    1.1394    1.2750 H   0  0  0  0  0  0  0  0  0  0  0  0
    2.0813    0.6480   -0.9398 H   0  0  0  0  0  0  0  0  0  0  0  0
    1.9533   -1.0799   -0.4956 H   0  0  0  0  0  0  0  0  0  0  0  0
   -0.4859    0.4328   -1.5539 H   0  0  0  0  0  0  0  0  0  0  0  0
    0.1427   -1.8159   -1.5661 H   0  0  0  0  0  0  0  0  0  0  0  0
   -0.5735   -2.1193   -0.1325 H   0  0  0  0  0  0  0  0  0  0  0  0
   -2.3336   -0.4275    0.7294 H   0  0  0  0  0  0  0  0  0  0  0  0
   -2.0816    1.2448    0.2466 H   0  0  0  0  0  0  0  0  0  0  0  0
   -3.1654   -0.9358   -1.6106 H   0  0  0  0  0  0  0  0  0  0  0  0
   -2.8613    0.7400   -2.0592 H   0  0  0  0  0  0  0  0  0  0  0  0
   -5.2024    0.4977   -1.6383 H   0  0  0  0  0  0  0  0  0  0  0  0
   -4.5369    1.4921   -0.3466 H   0  0  0  0  0  0  0  0  0  0  0  0
   -5.1762   -1.5038   -0.1289 H   0  0  0  0  0  0  0  0  0  0  0  0
   -6.1679   -0.1817    0.5048 H   0  0  0  0  0  0  0  0  0  0  0  0
   -4.5709   -0.4865    1.1935 H   0  0  0  0  0  0  0  0  0  0  0  0
    1.1447   -0.6277    1.9614 H   0  0  0  0  0  0  0  0  0  0  0  0
   -0.0814    1.5484    1.6367 H   0  0  0  0  0  0  0  0  0  0  0  0
  1 16  1  0  0  0  0
  1 15  1  0  0  0  0
  2  3  1  0  0  0  0
  2  1  1  0  0  0  0
  3  1  1  0  0  0  0
  3  4  1  0  0  0  0
  3 19  1  0  0  0  0
  4 20  1  0  0  0  0
  5  6  1  0  0  0  0
  5  4  1  0  0  0  0
  6 14  1  0  0  0  0
  6 13  1  0  0  0  0
  7 23  1  6  0  0  0
  7  9  1  0  0  0  0
  7  6  1  0  0  0  0
  8  7  1  0  0  0  0
  8 25  1  0  0  0  0
  9 27  1  0  0  0  0
  9 26  1  0  0  0  0
 10 11  1  0  0  0  0
 10  9  1  0  0  0  0
 11 31  1  0  0  0  0
 11 12  1  0  0  0  0
 12 33  1  0  0  0  0
 12 34  1  0  0  0  0
 13 35  1  0  0  0  0
 14 36  1  0  0  0  0
 17  2  1  0  0  0  0
 18  2  1  0  0  0  0
 21  5  1  0  0  0  0
 22  5  1  0  0  0  0
 24  8  1  0  0  0  0
 28 10  1  0  0  0  0
 29 10  1  0  0  0  0
 30 11  1  0  0  0  0
 32 12  1  0  0  0  0
M  END
