75.3541
 OpenBabel10231816213D

 50 52  0  0  1  0  0  0  0  0999 V2000
    7.0996    0.3091    0.6070 O   0  0  0  0  0  0  0  0  0  0  0  0
    6.2302    0.8341   -0.2786 C   0  0  0  0  0  0  0  0  0  0  0  0
    6.5386    1.7740   -1.0020 O   0  0  0  0  0  0  0  0  0  0  0  0
    4.8740    0.1620   -0.2950 C   0  0  1  0  0  0  0  0  0  0  0  0
    4.0630    0.6137    0.9185 C   0  0  0  0  0  0  0  0  0  0  0  0
    2.6937   -0.0750    0.9460 C   0  0  0  0  0  0  0  0  0  0  0  0
    1.8739    0.2172   -0.3398 C   0  0  2  0  0  0  0  0  0  0  0  0
    2.7152   -0.1892   -1.5771 C   0  0  0  0  0  0  0  0  0  0  0  0
    4.1026    0.4743   -1.5878 C   0  0  0  0  0  0  0  0  0  0  0  0
    1.6257    1.6766   -0.4010 C   0  0  0  0  0  0  0  0  0  0  0  0
    1.4346    2.8242   -0.4354 N   0  0  0  0  0  0  0  0  0  0  0  0
    0.5473   -0.5565   -0.3176 C   0  0  0  0  0  0  0  0  0  0  0  0
    0.5275   -1.9536   -0.1861 C   0  0  0  0  0  0  0  0  0  0  0  0
   -0.6813   -2.6566   -0.1557 C   0  0  0  0  0  0  0  0  0  0  0  0
   -1.8956   -1.9768   -0.2570 C   0  0  0  0  0  0  0  0  0  0  0  0
   -3.1304   -2.5556   -0.2520 O   0  0  0  0  0  0  0  0  0  0  0  0
   -3.1877   -3.9601   -0.1017 C   0  0  0  0  0  0  0  0  0  0  0  0
   -1.8870   -0.5912   -0.3779 C   0  0  0  0  0  0  0  0  0  0  0  0
   -0.6873    0.1089   -0.4297 C   0  0  0  0  0  0  0  0  0  0  0  0
   -3.0414    0.1260   -0.5686 O   0  0  0  0  0  0  0  0  0  0  0  0
   -3.7978    0.3195    0.6393 C   0  0  0  0  0  0  0  0  0  0  0  0
   -5.1695    0.8491    0.2181 C   0  0  0  0  0  0  0  0  0  0  0  0
   -4.9223    2.3283   -0.1091 C   0  0  0  0  0  0  0  0  0  0  0  0
   -3.6518    2.7254    0.6595 C   0  0  0  0  0  0  0  0  0  0  0  0
   -3.2365    1.4837    1.4524 C   0  0  0  0  0  0  0  0  0  0  0  0
    6.7422   -0.4527    1.1095 H   0  0  0  0  0  0  0  0  0  0  0  0
    5.0346   -0.9226   -0.2555 H   0  0  0  0  0  0  0  0  0  0  0  0
    4.6087    0.4019    1.8434 H   0  0  0  0  0  0  0  0  0  0  0  0
    3.9295    1.7035    0.8874 H   0  0  0  0  0  0  0  0  0  0  0  0
    2.8579   -1.1546    1.0627 H   0  0  0  0  0  0  0  0  0  0  0  0
    2.1371    0.2531    1.8333 H   0  0  0  0  0  0  0  0  0  0  0  0
    2.8619   -1.2778   -1.5935 H   0  0  0  0  0  0  0  0  0  0  0  0
    2.1763    0.0646   -2.4994 H   0  0  0  0  0  0  0  0  0  0  0  0
    3.9957    1.5621   -1.7042 H   0  0  0  0  0  0  0  0  0  0  0  0
    4.6655    0.1321   -2.4640 H   0  0  0  0  0  0  0  0  0  0  0  0
    1.4574   -2.5121   -0.1089 H   0  0  0  0  0  0  0  0  0  0  0  0
   -0.6415   -3.7356   -0.0557 H   0  0  0  0  0  0  0  0  0  0  0  0
   -2.7505   -4.2760    0.8511 H   0  0  0  0  0  0  0  0  0  0  0  0
   -4.2460   -4.2271   -0.1027 H   0  0  0  0  0  0  0  0  0  0  0  0
   -2.6985   -4.4659   -0.9394 H   0  0  0  0  0  0  0  0  0  0  0  0
   -0.7465    1.1884   -0.5424 H   0  0  0  0  0  0  0  0  0  0  0  0
   -3.8897   -0.5994    1.2291 H   0  0  0  0  0  0  0  0  0  0  0  0
   -5.5711    0.3011   -0.6414 H   0  0  0  0  0  0  0  0  0  0  0  0
   -5.8907    0.7668    1.0406 H   0  0  0  0  0  0  0  0  0  0  0  0
   -5.7830    2.9489    0.1659 H   0  0  0  0  0  0  0  0  0  0  0  0
   -4.7704    2.4673   -1.1874 H   0  0  0  0  0  0  0  0  0  0  0  0
   -2.8603    3.0067   -0.0467 H   0  0  0  0  0  0  0  0  0  0  0  0
   -3.8120    3.5895    1.3136 H   0  0  0  0  0  0  0  0  0  0  0  0
   -3.6917    1.5021    2.4497 H   0  0  0  0  0  0  0  0  0  0  0  0
   -2.1526    1.4242    1.5861 H   0  0  0  0  0  0  0  0  0  0  0  0
  1 26  1  0  0  0  0
  2  1  1  0  0  0  0
  3  2  2  0  0  0  0
  4  2  1  0  0  0  0
  4 27  1  1  0  0  0
  4  5  1  0  0  0  0
  5  6  1  0  0  0  0
  5 28  1  0  0  0  0
  6 30  1  0  0  0  0
  6 31  1  0  0  0  0
  7 10  1  6  0  0  0
  7 12  1  0  0  0  0
  7  6  1  0  0  0  0
  8  7  1  0  0  0  0
  9  8  1  0  0  0  0
  9  4  1  0  0  0  0
 11 10  3  0  0  0  0
 12 13  2  0  0  0  0
 13 14  1  0  0  0  0
 13 36  1  0  0  0  0
 14 37  1  0  0  0  0
 15 16  1  0  0  0  0
 15 14  2  0  0  0  0
 16 17  1  0  0  0  0
 17 38  1  0  0  0  0
 18 15  1  0  0  0  0
 19 18  2  0  0  0  0
 19 12  1  0  0  0  0
 20 18  1  0  0  0  0
 20 21  1  0  0  0  0
 21 42  1  0  0  0  0
 21 25  1  0  0  0  0
 22 21  1  0  0  0  0
 22 44  1  0  0  0  0
 23 45  1  0  0  0  0
 23 22  1  0  0  0  0
 23 24  1  0  0  0  0
 24 48  1  0  0  0  0
 24 25  1  0  0  0  0
 25 50  1  0  0  0  0
 25 49  1  0  0  0  0
 29  5  1  0  0  0  0
 32  8  1  0  0  0  0
 33  8  1  0  0  0  0
 34  9  1  0  0  0  0
 35  9  1  0  0  0  0
 39 17  1  0  0  0  0
 40 17  1  0  0  0  0
 41 19  1  0  0  0  0
 43 22  1  0  0  0  0
 46 23  1  0  0  0  0
 47 24  1  0  0  0  0
M  END
