3.57493
 OpenBabel10231816213D

 66 68  0  0  1  0  0  0  0  0999 V2000
    0.7662   -0.6072    2.5425 C   0  0  2  0  0  0  0  0  0  0  0  0
    1.0229   -1.8778    1.6964 C   0  0  0  0  0  0  0  0  0  0  0  0
    0.0930   -2.1883    0.5519 C   0  0  0  0  0  0  0  0  0  0  0  0
   -1.0486   -2.9773    0.7608 C   0  0  0  0  0  0  0  0  0  0  0  0
   -1.9383   -3.2441   -0.2851 C   0  0  0  0  0  0  0  0  0  0  0  0
   -1.6901   -2.7235   -1.5507 C   0  0  0  0  0  0  0  0  0  0  0  0
   -0.5269   -1.9923   -1.7873 C   0  0  0  0  0  0  0  0  0  0  0  0
    0.3532   -1.7113   -0.7395 C   0  0  0  0  0  0  0  0  0  0  0  0
   -2.5252   -2.9047   -2.6157 O   0  0  0  0  0  0  0  0  0  0  0  0
   -3.8721   -2.4527   -2.4156 C   0  0  0  0  0  0  0  0  0  0  0  0
   -4.0241   -0.9359   -2.5867 C   0  0  0  0  0  0  0  0  0  0  0  0
   -3.4599   -0.0813   -1.4450 C   0  0  0  0  0  0  0  0  0  0  0  0
   -4.1634   -0.3292   -0.1283 C   0  0  0  0  0  0  0  0  0  0  0  0
   -5.3285   -0.7300   -0.0874 O   0  0  0  0  0  0  0  0  0  0  0  0
   -3.5396   -0.0530    1.0469 N   0  0  0  0  0  0  0  0  0  0  0  0
   -2.1570    0.3803    1.3435 C   0  0  2  0  0  0  0  0  0  0  0  0
   -1.8227   -0.2535    2.7121 C   0  0  0  0  0  0  0  0  0  0  0  0
   -2.7302   -0.4378    3.5378 O   0  0  0  0  0  0  0  0  0  0  0  0
   -0.5733   -0.5433    3.1557 N   0  0  0  0  0  0  0  0  0  0  0  0
   -2.0979    1.8950    1.5182 C   0  0  0  0  0  0  0  0  0  0  0  0
   -2.1587    2.6431    0.2106 C   0  0  0  0  0  0  0  0  0  0  0  0
   -1.6440    2.2835   -0.8329 O   0  0  0  0  0  0  0  0  0  0  0  0
   -2.7877    3.8567    0.2880 N   0  0  0  0  0  0  0  0  0  0  0  0
    1.2566    0.7365    1.9669 C   0  0  2  0  0  0  0  0  0  0  0  0
    0.6703    1.0013    0.7008 O   0  0  0  0  0  0  0  0  0  0  0  0
    2.7845    0.8150    1.8049 C   0  0  0  0  0  0  0  0  0  0  0  0
    3.1100    2.1627    1.2727 N   0  0  0  0  0  0  0  0  0  0  0  0
    4.6414    2.3743    0.5977 S   0  0  0  0  0  0  0  0  0  0  0  0
    5.5851    1.7964    1.5354 O   0  0  0  0  0  0  0  0  0  0  0  0
    4.7175    3.7638    0.2063 O   0  0  0  0  0  0  0  0  0  0  0  0
    4.5808    1.3773   -0.8639 C   0  0  0  0  0  0  0  0  0  0  0  0
    3.9423    1.8542   -2.0096 C   0  0  0  0  0  0  0  0  0  0  0  0
    3.9054    1.0531   -3.1537 C   0  0  0  0  0  0  0  0  0  0  0  0
    4.5081   -0.2066   -3.1475 C   0  0  0  0  0  0  0  0  0  0  0  0
    5.1564   -0.6716   -2.0017 C   0  0  0  0  0  0  0  0  0  0  0  0
    5.1982    0.1226   -0.8587 C   0  0  0  0  0  0  0  0  0  0  0  0
    1.4017   -0.7519    3.4302 H   0  0  0  0  0  0  0  0  0  0  0  0
    0.9990   -2.7380    2.3810 H   0  0  0  0  0  0  0  0  0  0  0  0
    2.0526   -1.8669    1.3187 H   0  0  0  0  0  0  0  0  0  0  0  0
   -1.2615   -3.3835    1.7477 H   0  0  0  0  0  0  0  0  0  0  0  0
   -2.8153   -3.8558   -0.0995 H   0  0  0  0  0  0  0  0  0  0  0  0
   -0.3417   -1.5872   -2.7788 H   0  0  0  0  0  0  0  0  0  0  0  0
    1.2224   -1.0888   -0.9385 H   0  0  0  0  0  0  0  0  0  0  0  0
   -4.3116   -2.8162   -1.4812 H   0  0  0  0  0  0  0  0  0  0  0  0
   -4.4516   -2.9281   -3.2183 H   0  0  0  0  0  0  0  0  0  0  0  0
   -3.5372   -0.6324   -3.5215 H   0  0  0  0  0  0  0  0  0  0  0  0
   -5.0923   -0.7095   -2.6900 H   0  0  0  0  0  0  0  0  0  0  0  0
   -2.3846   -0.2100   -1.3517 H   0  0  0  0  0  0  0  0  0  0  0  0
   -3.6296    0.9681   -1.7049 H   0  0  0  0  0  0  0  0  0  0  0  0
   -4.1090   -0.2706    1.8620 H   0  0  0  0  0  0  0  0  0  0  0  0
   -1.4983    0.0158    0.5650 H   0  0  0  0  0  0  0  0  0  0  0  0
   -0.6325   -0.9283    4.0940 H   0  0  0  0  0  0  0  0  0  0  0  0
   -2.8914    2.2345    2.1977 H   0  0  0  0  0  0  0  0  0  0  0  0
   -1.1564    2.1913    1.9885 H   0  0  0  0  0  0  0  0  0  0  0  0
   -3.1066    4.2615    1.1576 H   0  0  0  0  0  0  0  0  0  0  0  0
   -2.8142    4.4238   -0.5482 H   0  0  0  0  0  0  0  0  0  0  0  0
    0.9410    1.5368    2.6473 H   0  0  0  0  0  0  0  0  0  0  0  0
    1.1588    1.7537    0.3115 H   0  0  0  0  0  0  0  0  0  0  0  0
    3.2879    0.6611    2.7632 H   0  0  0  0  0  0  0  0  0  0  0  0
    3.1105    0.0613    1.0854 H   0  0  0  0  0  0  0  0  0  0  0  0
    2.9494    2.9316    1.9291 H   0  0  0  0  0  0  0  0  0  0  0  0
    3.4800    2.8391   -2.0217 H   0  0  0  0  0  0  0  0  0  0  0  0
    3.4082    1.4105   -4.0527 H   0  0  0  0  0  0  0  0  0  0  0  0
    4.4797   -0.8270   -4.0413 H   0  0  0  0  0  0  0  0  0  0  0  0
    5.6310   -1.6500   -2.0024 H   0  0  0  0  0  0  0  0  0  0  0  0
    5.7078   -0.2392    0.0321 H   0  0  0  0  0  0  0  0  0  0  0  0
  1 19  1  0  0  0  0
  1 37  1  1  0  0  0
  2 38  1  0  0  0  0
  2  1  1  0  0  0  0
  3  4  1  0  0  0  0
  3  2  1  0  0  0  0
  4 40  1  0  0  0  0
  5 41  1  0  0  0  0
  5  4  2  0  0  0  0
  6  5  1  0  0  0  0
  7  6  2  0  0  0  0
  7  8  1  0  0  0  0
  8  3  2  0  0  0  0
  9 10  1  0  0  0  0
  9  6  1  0  0  0  0
 10 44  1  0  0  0  0
 11 10  1  0  0  0  0
 11 12  1  0  0  0  0
 12 48  1  0  0  0  0
 12 13  1  0  0  0  0
 13 14  2  0  0  0  0
 13 15  1  0  0  0  0
 15 16  1  0  0  0  0
 15 50  1  0  0  0  0
 16 51  1  6  0  0  0
 16 20  1  0  0  0  0
 16 17  1  0  0  0  0
 17 19  1  0  0  0  0
 17 18  2  0  0  0  0
 19 52  1  0  0  0  0
 20 54  1  0  0  0  0
 20 53  1  0  0  0  0
 21 23  1  0  0  0  0
 21 20  1  0  0  0  0
 22 21  2  0  0  0  0
 23 55  1  0  0  0  0
 24  1  1  0  0  0  0
 24 57  1  1  0  0  0
 25 24  1  0  0  0  0
 26 24  1  0  0  0  0
 26 59  1  0  0  0  0
 27 26  1  0  0  0  0
 27 61  1  0  0  0  0
 28 27  1  0  0  0  0
 28 29  2  0  0  0  0
 30 28  2  0  0  0  0
 31 36  1  0  0  0  0
 31 28  1  0  0  0  0
 32 31  2  0  0  0  0
 33 34  2  0  0  0  0
 33 32  1  0  0  0  0
 34 35  1  0  0  0  0
 35 36  2  0  0  0  0
 36 66  1  0  0  0  0
 39  2  1  0  0  0  0
 42  7  1  0  0  0  0
 43  8  1  0  0  0  0
 45 10  1  0  0  0  0
 46 11  1  0  0  0  0
 47 11  1  0  0  0  0
 49 12  1  0  0  0  0
 56 23  1  0  0  0  0
 58 25  1  0  0  0  0
 60 26  1  0  0  0  0
 62 32  1  0  0  0  0
 63 33  1  0  0  0  0
 64 34  1  0  0  0  0
 65 35  1  0  0  0  0
M  END
