57.8278
 OpenBabel10231816213D

 36 36  0  0  1  0  0  0  0  0999 V2000
    2.9438   -0.1340   -1.5926 C   0  0  0  0  0  0  0  0  0  0  0  0
    4.2316    0.5019   -1.1570 C   0  0  0  0  0  0  0  0  0  0  0  0
    3.3790   -0.2386   -0.1559 C   0  0  0  0  0  0  0  0  0  0  0  0
    2.6717    0.5395    0.8759 N   0  0  0  0  0  0  0  0  0  0  0  0
    1.8950   -0.3378    1.7819 C   0  0  0  0  0  0  0  0  0  0  0  0
    0.5335   -0.8678    1.2603 C   0  0  0  0  0  0  0  0  0  0  0  0
   -0.5022    0.2816    0.9779 C   0  0  1  0  0  0  0  0  0  0  0  0
   -0.0961    1.0302   -0.2290 N   0  0  0  0  0  0  0  0  0  0  0  0
   -1.9259   -0.3010    0.8052 C   0  0  0  0  0  0  0  0  0  0  0  0
   -3.0049    0.7233    0.4240 C   0  0  0  0  0  0  0  0  0  0  0  0
   -3.2394    0.8411   -1.0841 C   0  0  0  0  0  0  0  0  0  0  0  0
   -3.9942   -0.3480   -1.6617 C   0  0  0  0  0  0  0  0  0  0  0  0
    0.7055   -1.6134    0.0566 O   0  0  0  0  0  0  0  0  0  0  0  0
    0.0112   -1.7850    2.2077 O   0  0  0  0  0  0  0  0  0  0  0  0
    2.1240    0.5208   -1.8516 H   0  0  0  0  0  0  0  0  0  0  0  0
    2.9855   -1.0424   -2.1841 H   0  0  0  0  0  0  0  0  0  0  0  0
    4.2666    1.5821   -1.1029 H   0  0  0  0  0  0  0  0  0  0  0  0
    5.1560    0.0350   -1.4691 H   0  0  0  0  0  0  0  0  0  0  0  0
    3.7738   -1.2003    0.1651 H   0  0  0  0  0  0  0  0  0  0  0  0
    3.3676    1.0290    1.4453 H   0  0  0  0  0  0  0  0  0  0  0  0
    2.5218   -1.1867    2.0950 H   0  0  0  0  0  0  0  0  0  0  0  0
    1.7051    0.2255    2.7098 H   0  0  0  0  0  0  0  0  0  0  0  0
   -0.5202    0.9640    1.8373 H   0  0  0  0  0  0  0  0  0  0  0  0
    0.8543    1.3874   -0.0626 H   0  0  0  0  0  0  0  0  0  0  0  0
   -0.6847    1.8572   -0.3377 H   0  0  0  0  0  0  0  0  0  0  0  0
   -2.2242   -0.7381    1.7672 H   0  0  0  0  0  0  0  0  0  0  0  0
   -1.9113   -1.1289    0.0875 H   0  0  0  0  0  0  0  0  0  0  0  0
   -2.7450    1.7044    0.8379 H   0  0  0  0  0  0  0  0  0  0  0  0
   -3.9483    0.4304    0.9020 H   0  0  0  0  0  0  0  0  0  0  0  0
   -2.2969    0.9560   -1.6270 H   0  0  0  0  0  0  0  0  0  0  0  0
   -3.8234    1.7488   -1.2754 H   0  0  0  0  0  0  0  0  0  0  0  0
   -4.9698   -0.4617   -1.1786 H   0  0  0  0  0  0  0  0  0  0  0  0
   -4.1616   -0.1995   -2.7333 H   0  0  0  0  0  0  0  0  0  0  0  0
   -3.4387   -1.2819   -1.5389 H   0  0  0  0  0  0  0  0  0  0  0  0
    0.5566   -0.9380   -0.6403 H   0  0  0  0  0  0  0  0  0  0  0  0
   -0.1960   -2.5553    1.6452 H   0  0  0  0  0  0  0  0  0  0  0  0
  1  2  1  0  0  0  0
  1  3  1  0  0  0  0
  2 17  1  0  0  0  0
  2  3  1  0  0  0  0
  3 19  1  0  0  0  0
  3  4  1  0  0  0  0
  4 20  1  0  0  0  0
  4  5  1  0  0  0  0
  5 21  1  0  0  0  0
  5 22  1  0  0  0  0
  6  5  1  0  0  0  0
  6 14  1  0  0  0  0
  7  6  1  0  0  0  0
  7 23  1  1  0  0  0
  8 24  1  0  0  0  0
  8  7  1  0  0  0  0
  9  7  1  0  0  0  0
  9 26  1  0  0  0  0
 10  9  1  0  0  0  0
 10 28  1  0  0  0  0
 10 29  1  0  0  0  0
 11 10  1  0  0  0  0
 12 34  1  0  0  0  0
 12 32  1  0  0  0  0
 12 11  1  0  0  0  0
 13  6  1  0  0  0  0
 15  1  1  0  0  0  0
 16  1  1  0  0  0  0
 18  2  1  0  0  0  0
 25  8  1  0  0  0  0
 27  9  1  0  0  0  0
 30 11  1  0  0  0  0
 31 11  1  0  0  0  0
 33 12  1  0  0  0  0
 35 13  1  0  0  0  0
 36 14  1  0  0  0  0
M  END
