-33.8724
 OpenBabel10231816213D

 24 23  0  0  1  0  0  0  0  0999 V2000
   -0.0597    0.0944   -0.1030 C   0  0  2  0  0  0  0  0  0  0  0  0
   -0.5950   -1.3295   -0.2731 C   0  0  0  0  0  0  0  0  0  0  0  0
   -1.7067   -1.7318    0.0402 O   0  0  0  0  0  0  0  0  0  0  0  0
    0.3363   -2.1886   -0.7382 O   0  0  0  0  0  0  0  0  0  0  0  0
    0.6822    0.2383    1.2325 C   0  0  0  0  0  0  0  0  0  0  0  0
    1.9017   -0.6775    1.3971 C   0  0  0  0  0  0  0  0  0  0  0  0
    2.9775   -0.4055    0.3689 C   0  0  0  0  0  0  0  0  0  0  0  0
    2.9848    0.5428   -0.3980 O   0  0  0  0  0  0  0  0  0  0  0  0
    3.9763   -1.3118    0.4032 O   0  0  0  0  0  0  0  0  0  0  0  0
   -1.2120    1.0043   -0.1482 N   0  0  0  0  0  0  0  0  0  0  0  0
   -1.8226    1.2286   -1.3609 C   0  0  0  0  0  0  0  0  0  0  0  0
   -1.3511    0.8513   -2.4319 O   0  0  0  0  0  0  0  0  0  0  0  0
   -3.1436    1.9371   -1.2797 C   0  0  0  0  0  0  0  0  0  0  0  0
    0.5851    0.3288   -0.9562 H   0  0  0  0  0  0  0  0  0  0  0  0
   -0.1396   -3.0408   -0.8268 H   0  0  0  0  0  0  0  0  0  0  0  0
   -0.0116    0.0419    2.0615 H   0  0  0  0  0  0  0  0  0  0  0  0
    1.0019    1.2825    1.3427 H   0  0  0  0  0  0  0  0  0  0  0  0
    2.3422   -0.5052    2.3860 H   0  0  0  0  0  0  0  0  0  0  0  0
    1.6071   -1.7308    1.3510 H   0  0  0  0  0  0  0  0  0  0  0  0
    3.8545   -2.0139    1.0702 H   0  0  0  0  0  0  0  0  0  0  0  0
   -1.7956    1.0572    0.6777 H   0  0  0  0  0  0  0  0  0  0  0  0
   -3.8495    1.3503   -0.6859 H   0  0  0  0  0  0  0  0  0  0  0  0
   -3.5489    2.0490   -2.2897 H   0  0  0  0  0  0  0  0  0  0  0  0
   -3.0138    2.9290   -0.8394 H   0  0  0  0  0  0  0  0  0  0  0  0
  1 14  1  6  0  0  0
  1  5  1  0  0  0  0
  2  1  1  0  0  0  0
  2  3  2  0  0  0  0
  4  2  1  0  0  0  0
  5 17  1  0  0  0  0
  5  6  1  0  0  0  0
  5 16  1  0  0  0  0
  6 18  1  0  0  0  0
  7  9  1  0  0  0  0
  7  6  1  0  0  0  0
  8  7  2  0  0  0  0
  9 20  1  0  0  0  0
 10  1  1  0  0  0  0
 10 21  1  0  0  0  0
 11 13  1  0  0  0  0
 11 10  1  0  0  0  0
 12 11  2  0  0  0  0
 13 24  1  0  0  0  0
 13 22  1  0  0  0  0
 15  4  1  0  0  0  0
 19  6  1  0  0  0  0
 23 13  1  0  0  0  0
M  END
