115.385
 OpenBabel10231816213D

 34 35  0  0  1  0  0  0  0  0999 V2000
   -1.2453   -0.3888   -0.5241 C   0  0  1  0  0  0  0  0  0  0  0  0
    0.0875    0.1778   -0.2709 N   0  0  0  0  0  0  0  0  0  0  0  0
    1.1705   -0.7999   -0.4358 C   0  0  0  0  0  0  0  0  0  0  0  0
    2.5285   -0.1669   -0.2328 C   0  0  0  0  0  0  0  0  0  0  0  0
    2.7172    0.9134    0.6509 C   0  0  0  0  0  0  0  0  0  0  0  0
    3.9806    1.4683    0.8429 C   0  0  0  0  0  0  0  0  0  0  0  0
    5.0801    0.9466    0.1734 C   0  0  0  0  0  0  0  0  0  0  0  0
    4.9180   -0.1364   -0.6920 C   0  0  0  0  0  0  0  0  0  0  0  0
    3.6531   -0.6905   -0.8892 C   0  0  0  0  0  0  0  0  0  0  0  0
   -1.7645   -1.2626    0.6455 C   0  0  1  0  0  0  0  0  0  0  0  0
   -1.1473   -0.8720    1.8840 O   0  0  0  0  0  0  0  0  0  0  0  0
   -3.2804   -0.9867    0.7469 C   0  0  1  0  0  0  0  0  0  0  0  0
   -3.5734   -0.2396    1.9427 O   0  0  0  0  0  0  0  0  0  0  0  0
   -3.6125   -0.0974   -0.4587 C   0  0  1  0  0  0  0  0  0  0  0  0
   -4.7293    0.7438   -0.1882 O   0  0  0  0  0  0  0  0  0  0  0  0
   -2.3215    0.7062   -0.6310 C   0  0  2  0  0  0  0  0  0  0  0  0
   -2.2517    1.6159   -2.2075 S   0  0  0  0  0  0  0  0  0  0  0  0
   -1.2499   -0.9854   -1.4488 H   0  0  0  0  0  0  0  0  0  0  0  0
    0.2495    0.9309   -0.9503 H   0  0  0  0  0  0  0  0  0  0  0  0
    1.1211   -1.2288   -1.4448 H   0  0  0  0  0  0  0  0  0  0  0  0
    1.0695   -1.6175    0.2882 H   0  0  0  0  0  0  0  0  0  0  0  0
    1.8735    1.3350    1.1916 H   0  0  0  0  0  0  0  0  0  0  0  0
    4.1045    2.3124    1.5208 H   0  0  0  0  0  0  0  0  0  0  0  0
    6.0669    1.3772    0.3251 H   0  0  0  0  0  0  0  0  0  0  0  0
    5.7800   -0.5483   -1.2102 H   0  0  0  0  0  0  0  0  0  0  0  0
    3.5480   -1.5387   -1.5649 H   0  0  0  0  0  0  0  0  0  0  0  0
   -1.5458   -2.3207    0.4658 H   0  0  0  0  0  0  0  0  0  0  0  0
   -0.3948   -0.2963    1.6191 H   0  0  0  0  0  0  0  0  0  0  0  0
   -3.8800   -1.8997    0.7627 H   0  0  0  0  0  0  0  0  0  0  0  0
   -2.7629   -0.3252    2.4954 H   0  0  0  0  0  0  0  0  0  0  0  0
   -3.8263   -0.7103   -1.3425 H   0  0  0  0  0  0  0  0  0  0  0  0
   -4.7304    0.8609    0.7867 H   0  0  0  0  0  0  0  0  0  0  0  0
   -2.2254    1.4464    0.1737 H   0  0  0  0  0  0  0  0  0  0  0  0
   -3.4071    2.2773   -2.0238 H   0  0  0  0  0  0  0  0  0  0  0  0
  1 18  1  6  0  0  0
  1  2  1  0  0  0  0
  1 10  1  0  0  0  0
  3  2  1  0  0  0  0
  3  4  1  0  0  0  0
  3 21  1  0  0  0  0
  4  5  2  0  0  0  0
  5  6  1  0  0  0  0
  5 22  1  0  0  0  0
  6 23  1  0  0  0  0
  7 24  1  0  0  0  0
  7  6  2  0  0  0  0
  8  7  1  0  0  0  0
  9  8  2  0  0  0  0
  9  4  1  0  0  0  0
 10 27  1  6  0  0  0
 10 12  1  0  0  0  0
 10 11  1  0  0  0  0
 12 29  1  6  0  0  0
 12 13  1  0  0  0  0
 13 30  1  0  0  0  0
 14 31  1  6  0  0  0
 14 15  1  0  0  0  0
 14 12  1  0  0  0  0
 15 32  1  0  0  0  0
 16  1  1  0  0  0  0
 16 14  1  0  0  0  0
 16 33  1  1  0  0  0
 17 34  1  0  0  0  0
 17 16  1  0  0  0  0
 19  2  1  0  0  0  0
 20  3  1  0  0  0  0
 25  8  1  0  0  0  0
 26  9  1  0  0  0  0
 28 11  1  0  0  0  0
M  END
