50.44
 OpenBabel10231816213D

 40 42  0  0  0  0  0  0  0  0999 V2000
    5.1215    2.9436    2.9680 O   0  0  0  0  0  0  0  0  0  0  0  0
    5.3762    2.0887    2.1086 C   0  0  0  0  0  0  0  0  0  0  0  0
    6.7878    1.8371    1.6552 C   0  0  0  0  0  0  0  0  0  0  0  0
    4.2771    1.2856    1.5017 C   0  0  0  0  0  0  0  0  0  0  0  0
    4.5109    0.3071    0.5310 C   0  0  0  0  0  0  0  0  0  0  0  0
    3.4415   -0.4176   -0.0056 C   0  0  0  0  0  0  0  0  0  0  0  0
    2.1302   -0.1744    0.4173 C   0  0  0  0  0  0  0  0  0  0  0  0
    1.8978    0.7994    1.3832 C   0  0  0  0  0  0  0  0  0  0  0  0
    2.9647    1.5260    1.9237 C   0  0  0  0  0  0  0  0  0  0  0  0
    1.1111   -0.9527   -0.1703 N   0  0  0  0  0  0  0  0  0  0  0  0
   -0.2482   -0.8762    0.0654 C   0  0  0  0  0  0  0  0  0  0  0  0
   -0.7775   -0.0530    0.8112 O   0  0  0  0  0  0  0  0  0  0  0  0
   -1.0500   -1.8659   -0.6656 C   0  0  0  0  0  0  0  0  0  0  0  0
   -0.6600   -3.1679   -1.0989 C   0  0  0  0  0  0  0  0  0  0  0  0
   -1.6422   -3.8300   -1.7128 N   0  0  0  0  0  0  0  0  0  0  0  0
   -2.6711   -2.9685   -1.6839 N   0  0  0  0  0  0  0  0  0  0  0  0
   -2.3816   -1.7600   -1.0794 C   0  0  0  0  0  0  0  0  0  0  0  0
   -3.3968   -0.6991   -0.9622 C   0  0  0  0  0  0  0  0  0  0  0  0
   -3.7319   -0.1811    0.3020 C   0  0  0  0  0  0  0  0  0  0  0  0
   -4.7694    0.7487    0.4512 C   0  0  0  0  0  0  0  0  0  0  0  0
   -5.1649    1.3491    2.0203 Cl  0  0  0  0  0  0  0  0  0  0  0  0
   -5.4831    1.1774   -0.6661 C   0  0  0  0  0  0  0  0  0  0  0  0
   -6.5190    2.0685   -0.5800 O   0  0  0  0  0  0  0  0  0  0  0  0
   -5.1482    0.7100   -1.9311 C   0  0  0  0  0  0  0  0  0  0  0  0
   -4.1045   -0.2089   -2.0748 C   0  0  0  0  0  0  0  0  0  0  0  0
   -3.8381   -0.5879   -3.3642 O   0  0  0  0  0  0  0  0  0  0  0  0
    6.8886    2.0353    0.5847 H   0  0  0  0  0  0  0  0  0  0  0  0
    7.0810    0.8051    1.8659 H   0  0  0  0  0  0  0  0  0  0  0  0
    7.4603    2.5085    2.1990 H   0  0  0  0  0  0  0  0  0  0  0  0
    5.5129    0.0894    0.1761 H   0  0  0  0  0  0  0  0  0  0  0  0
    3.6482   -1.1764   -0.7582 H   0  0  0  0  0  0  0  0  0  0  0  0
    0.8890    1.0084    1.7265 H   0  0  0  0  0  0  0  0  0  0  0  0
    2.7849    2.2889    2.6798 H   0  0  0  0  0  0  0  0  0  0  0  0
    1.4196   -1.5964   -0.8814 H   0  0  0  0  0  0  0  0  0  0  0  0
    0.2899   -3.6762   -0.9741 H   0  0  0  0  0  0  0  0  0  0  0  0
   -3.5564   -3.2764   -2.0826 H   0  0  0  0  0  0  0  0  0  0  0  0
   -3.1798   -0.4950    1.1850 H   0  0  0  0  0  0  0  0  0  0  0  0
   -6.6306    2.3098    0.3593 H   0  0  0  0  0  0  0  0  0  0  0  0
   -5.6896    1.0559   -2.8079 H   0  0  0  0  0  0  0  0  0  0  0  0
   -2.9505   -0.9790   -3.4157 H   0  0  0  0  0  0  0  0  0  0  0  0
  2  1  2  0  0  0  0
  3 28  1  0  0  0  0
  3  2  1  0  0  0  0
  3 29  1  0  0  0  0
  4  9  1  0  0  0  0
  4  2  1  0  0  0  0
  5  4  2  0  0  0  0
  6  7  2  0  0  0  0
  6  5  1  0  0  0  0
  7  8  1  0  0  0  0
  8 32  1  0  0  0  0
  8  9  2  0  0  0  0
  9 33  1  0  0  0  0
 10 11  1  0  0  0  0
 10  7  1  0  0  0  0
 11 12  2  0  0  0  0
 13 11  1  0  0  0  0
 14 35  1  0  0  0  0
 14 13  1  0  0  0  0
 15 16  1  0  0  0  0
 15 14  2  0  0  0  0
 16 17  1  0  0  0  0
 17 18  1  0  0  0  0
 17 13  2  0  0  0  0
 18 19  2  0  0  0  0
 19 20  1  0  0  0  0
 19 37  1  0  0  0  0
 20 21  1  0  0  0  0
 22 23  1  0  0  0  0
 22 20  2  0  0  0  0
 23 38  1  0  0  0  0
 24 22  1  0  0  0  0
 25 24  2  0  0  0  0
 25 18  1  0  0  0  0
 26 25  1  0  0  0  0
 27  3  1  0  0  0  0
 30  5  1  0  0  0  0
 31  6  1  0  0  0  0
 34 10  1  0  0  0  0
 36 16  1  0  0  0  0
 39 24  1  0  0  0  0
 40 26  1  0  0  0  0
M  END
