69.9164
 OpenBabel10231816213D

 50 52  0  0  1  0  0  0  0  0999 V2000
    7.1463    0.5043    0.1281 O   0  0  0  0  0  0  0  0  0  0  0  0
    6.1868   -0.0102   -0.6641 C   0  0  0  0  0  0  0  0  0  0  0  0
    6.3692   -0.1241   -1.8638 O   0  0  0  0  0  0  0  0  0  0  0  0
    4.9433   -0.3962    0.1124 C   0  0  1  0  0  0  0  0  0  0  0  0
    4.2602    0.8642    0.6668 C   0  0  0  0  0  0  0  0  0  0  0  0
    2.7575    0.6390    0.8575 C   0  0  0  0  0  0  0  0  0  0  0  0
    2.0367    0.4270   -0.5106 C   0  0  2  0  0  0  0  0  0  0  0  0
    2.9830   -0.3365   -1.4907 C   0  0  0  0  0  0  0  0  0  0  0  0
    3.9834   -1.2341   -0.7537 C   0  0  0  0  0  0  0  0  0  0  0  0
    1.7821    1.7656   -1.1246 C   0  0  0  0  0  0  0  0  0  0  0  0
    1.5836    2.8211   -1.5719 N   0  0  0  0  0  0  0  0  0  0  0  0
    0.6947   -0.2820   -0.2403 C   0  0  0  0  0  0  0  0  0  0  0  0
    0.4746   -1.6416   -0.5223 C   0  0  0  0  0  0  0  0  0  0  0  0
   -0.7583   -2.2540   -0.2570 C   0  0  0  0  0  0  0  0  0  0  0  0
   -1.8033   -1.5238    0.3055 C   0  0  0  0  0  0  0  0  0  0  0  0
   -3.0467   -2.0151    0.5983 O   0  0  0  0  0  0  0  0  0  0  0  0
   -3.2952   -3.3826    0.3198 C   0  0  0  0  0  0  0  0  0  0  0  0
   -1.5991   -0.1701    0.5947 C   0  0  0  0  0  0  0  0  0  0  0  0
   -0.3658    0.4359    0.3477 C   0  0  0  0  0  0  0  0  0  0  0  0
   -2.6089    0.5170    1.2153 O   0  0  0  0  0  0  0  0  0  0  0  0
   -3.0991    1.6487    0.4841 C   0  0  0  0  0  0  0  0  0  0  0  0
   -4.1900    2.2822    1.3466 C   0  0  0  0  0  0  0  0  0  0  0  0
   -5.3896    1.3594    1.1485 C   0  0  0  0  0  0  0  0  0  0  0  0
   -5.2492    0.8002   -0.2659 C   0  0  0  0  0  0  0  0  0  0  0  0
   -3.8798    1.2539   -0.7711 C   0  0  0  0  0  0  0  0  0  0  0  0
    7.8821    0.7095   -0.4871 H   0  0  0  0  0  0  0  0  0  0  0  0
    5.2759   -1.0367    0.9400 H   0  0  0  0  0  0  0  0  0  0  0  0
    4.7235    1.1453    1.6196 H   0  0  0  0  0  0  0  0  0  0  0  0
    4.4188    1.7168   -0.0069 H   0  0  0  0  0  0  0  0  0  0  0  0
    2.3266    1.4877    1.4048 H   0  0  0  0  0  0  0  0  0  0  0  0
    2.6209   -0.2381    1.5074 H   0  0  0  0  0  0  0  0  0  0  0  0
    2.4204   -0.9112   -2.2352 H   0  0  0  0  0  0  0  0  0  0  0  0
    3.5692    0.3811   -2.0827 H   0  0  0  0  0  0  0  0  0  0  0  0
    4.5315   -1.8509   -1.4749 H   0  0  0  0  0  0  0  0  0  0  0  0
    3.4408   -1.9345   -0.1066 H   0  0  0  0  0  0  0  0  0  0  0  0
    1.2512   -2.2694   -0.9536 H   0  0  0  0  0  0  0  0  0  0  0  0
   -0.8669   -3.3059   -0.5008 H   0  0  0  0  0  0  0  0  0  0  0  0
   -2.6336   -4.0278    0.9063 H   0  0  0  0  0  0  0  0  0  0  0  0
   -4.3251   -3.5993    0.6189 H   0  0  0  0  0  0  0  0  0  0  0  0
   -3.2074   -3.5911   -0.7515 H   0  0  0  0  0  0  0  0  0  0  0  0
   -0.2360    1.4785    0.6306 H   0  0  0  0  0  0  0  0  0  0  0  0
   -2.3003    2.3692    0.2794 H   0  0  0  0  0  0  0  0  0  0  0  0
   -4.4308    3.2888    0.9864 H   0  0  0  0  0  0  0  0  0  0  0  0
   -3.9123    2.3422    2.4037 H   0  0  0  0  0  0  0  0  0  0  0  0
   -6.3380    1.8855    1.2930 H   0  0  0  0  0  0  0  0  0  0  0  0
   -5.3571    0.5366    1.8731 H   0  0  0  0  0  0  0  0  0  0  0  0
   -5.3167   -0.2933   -0.2487 H   0  0  0  0  0  0  0  0  0  0  0  0
   -6.0450    1.1670   -0.9228 H   0  0  0  0  0  0  0  0  0  0  0  0
   -4.0080    2.1313   -1.4170 H   0  0  0  0  0  0  0  0  0  0  0  0
   -3.4001    0.4708   -1.3646 H   0  0  0  0  0  0  0  0  0  0  0  0
  2  4  1  0  0  0  0
  2  1  1  0  0  0  0
  3  2  2  0  0  0  0
  4  5  1  0  0  0  0
  4 27  1  1  0  0  0
  5  6  1  0  0  0  0
  5 28  1  0  0  0  0
  6 30  1  0  0  0  0
  6 31  1  0  0  0  0
  7 10  1  6  0  0  0
  7 12  1  0  0  0  0
  7  6  1  0  0  0  0
  8  9  1  0  0  0  0
  8  7  1  0  0  0  0
  9 35  1  0  0  0  0
  9  4  1  0  0  0  0
 11 10  3  0  0  0  0
 12 19  2  0  0  0  0
 13 14  2  0  0  0  0
 13 12  1  0  0  0  0
 14 15  1  0  0  0  0
 15 18  2  0  0  0  0
 15 16  1  0  0  0  0
 17 16  1  0  0  0  0
 17 39  1  0  0  0  0
 17 38  1  0  0  0  0
 18 20  1  0  0  0  0
 19 18  1  0  0  0  0
 19 41  1  0  0  0  0
 21 20  1  0  0  0  0
 21 22  1  0  0  0  0
 22 44  1  0  0  0  0
 23 45  1  0  0  0  0
 23 22  1  0  0  0  0
 23 46  1  0  0  0  0
 24 47  1  0  0  0  0
 24 23  1  0  0  0  0
 25 24  1  0  0  0  0
 25 21  1  0  0  0  0
 26  1  1  0  0  0  0
 29  5  1  0  0  0  0
 32  8  1  0  0  0  0
 33  8  1  0  0  0  0
 34  9  1  0  0  0  0
 36 13  1  0  0  0  0
 37 14  1  0  0  0  0
 40 17  1  0  0  0  0
 42 21  1  0  0  0  0
 43 22  1  0  0  0  0
 48 24  1  0  0  0  0
 49 25  1  0  0  0  0
 50 25  1  0  0  0  0
M  END
