52.0421
 OpenBabel10231816213D

 40 42  0  0  0  0  0  0  0  0999 V2000
    5.8595    1.2894    2.0802 O   0  0  0  0  0  0  0  0  0  0  0  0
    4.8231    1.8823    1.7427 C   0  0  0  0  0  0  0  0  0  0  0  0
    4.7149    3.3782    1.8357 C   0  0  0  0  0  0  0  0  0  0  0  0
    3.6529    1.1116    1.2306 C   0  0  0  0  0  0  0  0  0  0  0  0
    2.4648    1.7308    0.8317 C   0  0  0  0  0  0  0  0  0  0  0  0
    1.3988    0.9594    0.3550 C   0  0  0  0  0  0  0  0  0  0  0  0
    1.5051   -0.4344    0.2769 C   0  0  0  0  0  0  0  0  0  0  0  0
    2.6844   -1.0513    0.6813 C   0  0  0  0  0  0  0  0  0  0  0  0
    3.7565   -0.2814    1.1507 C   0  0  0  0  0  0  0  0  0  0  0  0
    0.3859   -1.1344   -0.2115 N   0  0  0  0  0  0  0  0  0  0  0  0
    0.1782   -2.4963   -0.2050 C   0  0  0  0  0  0  0  0  0  0  0  0
    1.0060   -3.3378    0.1375 O   0  0  0  0  0  0  0  0  0  0  0  0
   -1.1494   -2.9326   -0.6589 C   0  0  0  0  0  0  0  0  0  0  0  0
   -1.4988   -4.2829   -0.9528 C   0  0  0  0  0  0  0  0  0  0  0  0
   -2.7608   -4.4128   -1.3704 N   0  0  0  0  0  0  0  0  0  0  0  0
   -3.2382   -3.1614   -1.3219 N   0  0  0  0  0  0  0  0  0  0  0  0
   -2.3230   -2.2162   -0.9082 C   0  0  0  0  0  0  0  0  0  0  0  0
   -2.6999   -0.8042   -0.7714 C   0  0  0  0  0  0  0  0  0  0  0  0
   -2.7211   -0.2169    0.5045 C   0  0  0  0  0  0  0  0  0  0  0  0
   -3.0371    1.1357    0.6757 C   0  0  0  0  0  0  0  0  0  0  0  0
   -3.0021    1.8179    2.2609 Cl  0  0  0  0  0  0  0  0  0  0  0  0
   -3.3547    1.9180   -0.4287 C   0  0  0  0  0  0  0  0  0  0  0  0
   -3.6650    3.2356   -0.2387 O   0  0  0  0  0  0  0  0  0  0  0  0
   -3.3497    1.3580   -1.7047 C   0  0  0  0  0  0  0  0  0  0  0  0
   -3.0186    0.0084   -1.8687 C   0  0  0  0  0  0  0  0  0  0  0  0
   -3.0213   -0.4347   -3.1624 O   0  0  0  0  0  0  0  0  0  0  0  0
    3.9050    3.6639    2.5123 H   0  0  0  0  0  0  0  0  0  0  0  0
    5.6550    3.7782    2.2308 H   0  0  0  0  0  0  0  0  0  0  0  0
    4.5405    3.8137    0.8481 H   0  0  0  0  0  0  0  0  0  0  0  0
    2.3424    2.8080    0.8820 H   0  0  0  0  0  0  0  0  0  0  0  0
    0.4780    1.4610    0.0621 H   0  0  0  0  0  0  0  0  0  0  0  0
    2.7907   -2.1300    0.6251 H   0  0  0  0  0  0  0  0  0  0  0  0
    4.6827   -0.7632    1.4612 H   0  0  0  0  0  0  0  0  0  0  0  0
   -0.3346   -0.5483   -0.5985 H   0  0  0  0  0  0  0  0  0  0  0  0
   -0.8662   -5.1661   -0.8891 H   0  0  0  0  0  0  0  0  0  0  0  0
   -4.2077   -3.0114   -1.5852 H   0  0  0  0  0  0  0  0  0  0  0  0
   -2.4810   -0.8051    1.3868 H   0  0  0  0  0  0  0  0  0  0  0  0
   -3.8732    3.6517   -1.0898 H   0  0  0  0  0  0  0  0  0  0  0  0
   -3.5933    1.9414   -2.5880 H   0  0  0  0  0  0  0  0  0  0  0  0
   -2.6287   -1.3220   -3.2176 H   0  0  0  0  0  0  0  0  0  0  0  0
  2  3  1  0  0  0  0
  2  1  2  0  0  0  0
  3 28  1  0  0  0  0
  3 27  1  0  0  0  0
  4  2  1  0  0  0  0
  5 30  1  0  0  0  0
  5  4  2  0  0  0  0
  6  5  1  0  0  0  0
  7  6  2  0  0  0  0
  7  8  1  0  0  0  0
  8  9  2  0  0  0  0
  9  4  1  0  0  0  0
  9 33  1  0  0  0  0
 10 11  1  0  0  0  0
 10  7  1  0  0  0  0
 11 12  2  0  0  0  0
 13 11  1  0  0  0  0
 14 35  1  0  0  0  0
 14 13  1  0  0  0  0
 15 16  1  0  0  0  0
 15 14  2  0  0  0  0
 16 17  1  0  0  0  0
 17 18  1  0  0  0  0
 17 13  2  0  0  0  0
 18 19  2  0  0  0  0
 19 20  1  0  0  0  0
 19 37  1  0  0  0  0
 20 21  1  0  0  0  0
 22 23  1  0  0  0  0
 22 20  2  0  0  0  0
 24 22  1  0  0  0  0
 25 24  2  0  0  0  0
 25 18  1  0  0  0  0
 26 25  1  0  0  0  0
 29  3  1  0  0  0  0
 31  6  1  0  0  0  0
 32  8  1  0  0  0  0
 34 10  1  0  0  0  0
 36 16  1  0  0  0  0
 38 23  1  0  0  0  0
 39 24  1  0  0  0  0
 40 26  1  0  0  0  0
M  END
