62.6499
 OpenBabel10231816213D

 36 36  0  0  1  0  0  0  0  0999 V2000
    4.3577   -0.6819    0.2396 C   0  0  0  0  0  0  0  0  0  0  0  0
    4.5788    0.6389   -0.4326 C   0  0  0  0  0  0  0  0  0  0  0  0
    3.2704    0.3538    0.2343 C   0  0  0  0  0  0  0  0  0  0  0  0
    2.1147    0.1500   -0.6411 N   0  0  0  0  0  0  0  0  0  0  0  0
    1.1724   -0.8452   -0.1301 C   0  0  0  0  0  0  0  0  0  0  0  0
    0.0462   -0.3401    0.8173 C   0  0  0  0  0  0  0  0  0  0  0  0
   -0.7917    0.8386    0.2174 C   0  0  1  0  0  0  0  0  0  0  0  0
    0.0320    2.0774    0.1584 N   0  0  0  0  0  0  0  0  0  0  0  0
   -1.3673    0.6189   -1.1870 C   0  0  0  0  0  0  0  0  0  0  0  0
   -2.3298   -0.5543   -1.3965 C   0  0  0  0  0  0  0  0  0  0  0  0
   -3.7471   -0.3554   -0.8476 C   0  0  0  0  0  0  0  0  0  0  0  0
   -3.9250   -0.6749    0.6268 C   0  0  0  0  0  0  0  0  0  0  0  0
    0.5381    0.1328    2.0674 O   0  0  0  0  0  0  0  0  0  0  0  0
   -0.7481   -1.4662    1.1659 O   0  0  0  0  0  0  0  0  0  0  0  0
    4.8594   -0.8753    1.1783 H   0  0  0  0  0  0  0  0  0  0  0  0
    4.2217   -1.5564   -0.3848 H   0  0  0  0  0  0  0  0  0  0  0  0
    4.5891    0.6720   -1.5170 H   0  0  0  0  0  0  0  0  0  0  0  0
    5.2376    1.3618    0.0431 H   0  0  0  0  0  0  0  0  0  0  0  0
    3.0645    0.8708    1.1648 H   0  0  0  0  0  0  0  0  0  0  0  0
    1.6110    1.0421   -0.7592 H   0  0  0  0  0  0  0  0  0  0  0  0
    0.7068   -1.3222   -0.9909 H   0  0  0  0  0  0  0  0  0  0  0  0
    1.7144   -1.6627    0.3667 H   0  0  0  0  0  0  0  0  0  0  0  0
   -1.6036    1.0524    0.9156 H   0  0  0  0  0  0  0  0  0  0  0  0
   -0.5658    2.8732   -0.0250 H   0  0  0  0  0  0  0  0  0  0  0  0
    0.4317    2.2111    1.0962 H   0  0  0  0  0  0  0  0  0  0  0  0
   -1.8753    1.5385   -1.5063 H   0  0  0  0  0  0  0  0  0  0  0  0
   -0.5359    0.4915   -1.8911 H   0  0  0  0  0  0  0  0  0  0  0  0
   -2.4312   -0.6620   -2.4858 H   0  0  0  0  0  0  0  0  0  0  0  0
   -1.9015   -1.4999   -1.0511 H   0  0  0  0  0  0  0  0  0  0  0  0
   -4.0905    0.6640   -1.0513 H   0  0  0  0  0  0  0  0  0  0  0  0
   -4.4150   -1.0243   -1.4070 H   0  0  0  0  0  0  0  0  0  0  0  0
   -3.3805    0.0180    1.2703 H   0  0  0  0  0  0  0  0  0  0  0  0
   -3.5987   -1.6937    0.8560 H   0  0  0  0  0  0  0  0  0  0  0  0
   -4.9832   -0.5957    0.8989 H   0  0  0  0  0  0  0  0  0  0  0  0
    1.0142   -0.6212    2.4578 H   0  0  0  0  0  0  0  0  0  0  0  0
   -1.2705   -1.1742    1.9298 H   0  0  0  0  0  0  0  0  0  0  0  0
  1 15  1  0  0  0  0
  2 18  1  0  0  0  0
  2  3  1  0  0  0  0
  2  1  1  0  0  0  0
  3  1  1  0  0  0  0
  3 19  1  0  0  0  0
  4  5  1  0  0  0  0
  4  3  1  0  0  0  0
  5 22  1  0  0  0  0
  5  6  1  0  0  0  0
  6 14  1  0  0  0  0
  6 13  1  0  0  0  0
  7  6  1  0  0  0  0
  7 23  1  1  0  0  0
  8  7  1  0  0  0  0
  8 25  1  0  0  0  0
  9  7  1  0  0  0  0
 10  9  1  0  0  0  0
 10 29  1  0  0  0  0
 10 11  1  0  0  0  0
 11 12  1  0  0  0  0
 12 33  1  0  0  0  0
 12 34  1  0  0  0  0
 12 32  1  0  0  0  0
 13 35  1  0  0  0  0
 14 36  1  0  0  0  0
 16  1  1  0  0  0  0
 17  2  1  0  0  0  0
 20  4  1  0  0  0  0
 21  5  1  0  0  0  0
 24  8  1  0  0  0  0
 26  9  1  0  0  0  0
 27  9  1  0  0  0  0
 28 10  1  0  0  0  0
 30 11  1  0  0  0  0
 31 11  1  0  0  0  0
M  END
