-29.1045
 OpenBabel10231816213D

 24 23  0  0  1  0  0  0  0  0999 V2000
   -0.5880   -0.9845   -0.3033 C   0  0  2  0  0  0  0  0  0  0  0  0
   -1.1020   -1.7373    0.9311 C   0  0  0  0  0  0  0  0  0  0  0  0
   -2.0412   -1.3412    1.6124 O   0  0  0  0  0  0  0  0  0  0  0  0
   -0.4463   -2.8826    1.2142 O   0  0  0  0  0  0  0  0  0  0  0  0
    0.9307   -0.7663   -0.2928 C   0  0  0  0  0  0  0  0  0  0  0  0
    1.4286   -0.0043    0.9381 C   0  0  0  0  0  0  0  0  0  0  0  0
    2.9350    0.0996    0.9388 C   0  0  0  0  0  0  0  0  0  0  0  0
    3.6765   -0.4933    0.1719 O   0  0  0  0  0  0  0  0  0  0  0  0
    3.3997    0.8939    1.9261 O   0  0  0  0  0  0  0  0  0  0  0  0
   -1.3102    0.2855   -0.3791 N   0  0  0  0  0  0  0  0  0  0  0  0
   -1.3829    0.9800   -1.5589 C   0  0  0  0  0  0  0  0  0  0  0  0
   -0.7766    0.6440   -2.5657 O   0  0  0  0  0  0  0  0  0  0  0  0
   -2.2566    2.1999   -1.5310 C   0  0  0  0  0  0  0  0  0  0  0  0
   -0.8685   -1.5769   -1.1840 H   0  0  0  0  0  0  0  0  0  0  0  0
    0.2682   -3.1180    0.5915 H   0  0  0  0  0  0  0  0  0  0  0  0
    1.4462   -1.7321   -0.3634 H   0  0  0  0  0  0  0  0  0  0  0  0
    1.2285   -0.2151   -1.1937 H   0  0  0  0  0  0  0  0  0  0  0  0
    1.0053    1.0058    0.9466 H   0  0  0  0  0  0  0  0  0  0  0  0
    1.1371   -0.5251    1.8554 H   0  0  0  0  0  0  0  0  0  0  0  0
    2.7024    1.2878    2.4870 H   0  0  0  0  0  0  0  0  0  0  0  0
   -1.9802    0.4726    0.3650 H   0  0  0  0  0  0  0  0  0  0  0  0
   -1.6716    3.0580   -1.8746 H   0  0  0  0  0  0  0  0  0  0  0  0
   -3.1016    2.0359   -2.2041 H   0  0  0  0  0  0  0  0  0  0  0  0
   -2.6326    2.4135   -0.5275 H   0  0  0  0  0  0  0  0  0  0  0  0
  1 14  1  6  0  0  0
  1  5  1  0  0  0  0
  1  2  1  0  0  0  0
  2  4  1  0  0  0  0
  2  3  2  0  0  0  0
  5  6  1  0  0  0  0
  6  7  1  0  0  0  0
  6 18  1  0  0  0  0
  6 19  1  0  0  0  0
  7  9  1  0  0  0  0
  8  7  2  0  0  0  0
  9 20  1  0  0  0  0
 10  1  1  0  0  0  0
 10 21  1  0  0  0  0
 11 13  1  0  0  0  0
 11 10  1  0  0  0  0
 12 11  2  0  0  0  0
 13 24  1  0  0  0  0
 15  4  1  0  0  0  0
 16  5  1  0  0  0  0
 17  5  1  0  0  0  0
 22 13  1  0  0  0  0
 23 13  1  0  0  0  0
M  END
