-8.39398
 OpenBabel10231816213D

 66 68  0  0  1  0  0  0  0  0999 V2000
    0.6828   -1.5450    1.3216 C   0  0  2  0  0  0  0  0  0  0  0  0
    0.4553   -2.9047    0.6316 C   0  0  0  0  0  0  0  0  0  0  0  0
   -1.0122   -3.2266    0.4249 C   0  0  0  0  0  0  0  0  0  0  0  0
   -1.9151   -3.1776    1.4924 C   0  0  0  0  0  0  0  0  0  0  0  0
   -3.2891   -3.3013    1.2763 C   0  0  0  0  0  0  0  0  0  0  0  0
   -3.7732   -3.5051   -0.0079 C   0  0  0  0  0  0  0  0  0  0  0  0
   -2.8818   -3.6896   -1.0634 C   0  0  0  0  0  0  0  0  0  0  0  0
   -1.5093   -3.5090   -0.8551 C   0  0  0  0  0  0  0  0  0  0  0  0
   -5.1065   -3.5393   -0.2961 O   0  0  0  0  0  0  0  0  0  0  0  0
   -5.8128   -2.3260    0.0135 C   0  0  0  0  0  0  0  0  0  0  0  0
   -5.6476   -1.2350   -1.0564 C   0  0  0  0  0  0  0  0  0  0  0  0
   -4.2670   -0.5726   -1.1654 C   0  0  0  0  0  0  0  0  0  0  0  0
   -3.8781    0.2312    0.0543 C   0  0  0  0  0  0  0  0  0  0  0  0
   -4.6859    0.4997    0.9626 O   0  0  0  0  0  0  0  0  0  0  0  0
   -2.6200    0.7444    0.1257 N   0  0  0  0  0  0  0  0  0  0  0  0
   -1.5562    0.6846   -0.8782 C   0  0  2  0  0  0  0  0  0  0  0  0
   -0.4244   -0.2924   -0.5537 C   0  0  0  0  0  0  0  0  0  0  0  0
    0.2532   -0.7933   -1.4596 O   0  0  0  0  0  0  0  0  0  0  0  0
   -0.1495   -0.4724    0.7735 N   0  0  0  0  0  0  0  0  0  0  0  0
   -0.9936    2.0700   -1.1608 C   0  0  0  0  0  0  0  0  0  0  0  0
   -0.4100    2.7272    0.0693 C   0  0  0  0  0  0  0  0  0  0  0  0
   -0.7309    2.4444    1.2187 O   0  0  0  0  0  0  0  0  0  0  0  0
    0.4829    3.7191   -0.1887 N   0  0  0  0  0  0  0  0  0  0  0  0
    2.1684   -1.1890    1.3951 C   0  0  2  0  0  0  0  0  0  0  0  0
    2.3208   -0.1935    2.4261 O   0  0  0  0  0  0  0  0  0  0  0  0
    2.7778   -0.6372    0.1032 C   0  0  0  0  0  0  0  0  0  0  0  0
    4.2151   -0.3642    0.3666 N   0  0  0  0  0  0  0  0  0  0  0  0
    5.0697    0.5187   -0.7892 S   0  0  0  0  0  0  0  0  0  0  0  0
    6.4596    0.1866   -0.5278 O   0  0  0  0  0  0  0  0  0  0  0  0
    4.4708    0.2827   -2.0740 O   0  0  0  0  0  0  0  0  0  0  0  0
    4.8279    2.2023   -0.3332 C   0  0  0  0  0  0  0  0  0  0  0  0
    5.7972    2.8512    0.4284 C   0  0  0  0  0  0  0  0  0  0  0  0
    5.6312    4.1948    0.7602 C   0  0  0  0  0  0  0  0  0  0  0  0
    4.5128    4.8921    0.3049 C   0  0  0  0  0  0  0  0  0  0  0  0
    3.5636    4.2468   -0.4872 C   0  0  0  0  0  0  0  0  0  0  0  0
    3.7170    2.8964   -0.8077 C   0  0  0  0  0  0  0  0  0  0  0  0
    0.3583   -1.6308    2.3684 H   0  0  0  0  0  0  0  0  0  0  0  0
    0.9751   -2.9082   -0.3340 H   0  0  0  0  0  0  0  0  0  0  0  0
    0.9222   -3.6948    1.2343 H   0  0  0  0  0  0  0  0  0  0  0  0
   -1.5519   -3.0016    2.5005 H   0  0  0  0  0  0  0  0  0  0  0  0
   -3.9761   -3.2331    2.1122 H   0  0  0  0  0  0  0  0  0  0  0  0
   -3.2668   -3.8858   -2.0612 H   0  0  0  0  0  0  0  0  0  0  0  0
   -0.8266   -3.5362   -1.7037 H   0  0  0  0  0  0  0  0  0  0  0  0
   -6.8751   -2.6182    0.0300 H   0  0  0  0  0  0  0  0  0  0  0  0
   -5.5766   -1.9368    1.0090 H   0  0  0  0  0  0  0  0  0  0  0  0
   -6.3762   -0.4438   -0.8405 H   0  0  0  0  0  0  0  0  0  0  0  0
   -5.9040   -1.6670   -2.0312 H   0  0  0  0  0  0  0  0  0  0  0  0
   -4.2912    0.1216   -2.0122 H   0  0  0  0  0  0  0  0  0  0  0  0
   -3.4866   -1.2961   -1.3873 H   0  0  0  0  0  0  0  0  0  0  0  0
   -2.4578    1.3658    0.9171 H   0  0  0  0  0  0  0  0  0  0  0  0
   -1.9915    0.3076   -1.8079 H   0  0  0  0  0  0  0  0  0  0  0  0
   -0.6401    0.1188    1.4396 H   0  0  0  0  0  0  0  0  0  0  0  0
   -1.8056    2.7082   -1.5290 H   0  0  0  0  0  0  0  0  0  0  0  0
   -0.2296    2.0046   -1.9405 H   0  0  0  0  0  0  0  0  0  0  0  0
    0.6117    4.0996   -1.1156 H   0  0  0  0  0  0  0  0  0  0  0  0
    0.8329    4.2582    0.5973 H   0  0  0  0  0  0  0  0  0  0  0  0
    2.7270   -2.0791    1.7162 H   0  0  0  0  0  0  0  0  0  0  0  0
    3.2190    0.1652    2.3007 H   0  0  0  0  0  0  0  0  0  0  0  0
    2.6823   -1.3515   -0.7158 H   0  0  0  0  0  0  0  0  0  0  0  0
    2.2812    0.2998   -0.1462 H   0  0  0  0  0  0  0  0  0  0  0  0
    4.7661   -1.2085    0.5384 H   0  0  0  0  0  0  0  0  0  0  0  0
    6.6751    2.3032    0.7635 H   0  0  0  0  0  0  0  0  0  0  0  0
    6.3789    4.6962    1.3685 H   0  0  0  0  0  0  0  0  0  0  0  0
    4.3908    5.9422    0.5602 H   0  0  0  0  0  0  0  0  0  0  0  0
    2.7086    4.8045   -0.8555 H   0  0  0  0  0  0  0  0  0  0  0  0
    2.9841    2.3777   -1.4196 H   0  0  0  0  0  0  0  0  0  0  0  0
  1 24  1  0  0  0  0
  1 37  1  1  0  0  0
  2 39  1  0  0  0  0
  2  1  1  0  0  0  0
  3  2  1  0  0  0  0
  3  4  2  0  0  0  0
  4 40  1  0  0  0  0
  5  4  1  0  0  0  0
  5 41  1  0  0  0  0
  6  5  2  0  0  0  0
  7  8  2  0  0  0  0
  7  6  1  0  0  0  0
  8  3  1  0  0  0  0
  9  6  1  0  0  0  0
  9 10  1  0  0  0  0
 10 44  1  0  0  0  0
 10 45  1  0  0  0  0
 11 46  1  0  0  0  0
 11 10  1  0  0  0  0
 12 11  1  0  0  0  0
 12 13  1  0  0  0  0
 13 15  1  0  0  0  0
 13 14  2  0  0  0  0
 15 50  1  0  0  0  0
 16 51  1  6  0  0  0
 16 17  1  0  0  0  0
 16 15  1  0  0  0  0
 17 19  1  0  0  0  0
 18 17  2  0  0  0  0
 19  1  1  0  0  0  0
 19 52  1  0  0  0  0
 20 16  1  0  0  0  0
 20 21  1  0  0  0  0
 21 22  2  0  0  0  0
 23 21  1  0  0  0  0
 23 56  1  0  0  0  0
 24 57  1  1  0  0  0
 24 25  1  0  0  0  0
 26 27  1  0  0  0  0
 26 24  1  0  0  0  0
 27 61  1  0  0  0  0
 28 29  2  0  0  0  0
 28 31  1  0  0  0  0
 28 27  1  0  0  0  0
 30 28  2  0  0  0  0
 31 32  2  0  0  0  0
 32 33  1  0  0  0  0
 32 62  1  0  0  0  0
 33 63  1  0  0  0  0
 34 64  1  0  0  0  0
 34 33  2  0  0  0  0
 35 34  1  0  0  0  0
 36 35  2  0  0  0  0
 36 31  1  0  0  0  0
 38  2  1  0  0  0  0
 42  7  1  0  0  0  0
 43  8  1  0  0  0  0
 47 11  1  0  0  0  0
 48 12  1  0  0  0  0
 49 12  1  0  0  0  0
 53 20  1  0  0  0  0
 54 20  1  0  0  0  0
 55 23  1  0  0  0  0
 58 25  1  0  0  0  0
 59 26  1  0  0  0  0
 60 26  1  0  0  0  0
 65 35  1  0  0  0  0
 66 36  1  0  0  0  0
M  END
