-14.7905
 OpenBabel10231816213D

 66 68  0  0  1  0  0  0  0  0999 V2000
    0.4071   -1.1091    1.1096 C   0  0  2  0  0  0  0  0  0  0  0  0
    0.7894   -2.1588    0.0575 C   0  0  0  0  0  0  0  0  0  0  0  0
   -0.4755   -2.8507   -0.4161 C   0  0  0  0  0  0  0  0  0  0  0  0
   -1.1614   -3.7062    0.4519 C   0  0  0  0  0  0  0  0  0  0  0  0
   -2.4534   -4.1404    0.1487 C   0  0  0  0  0  0  0  0  0  0  0  0
   -3.0771   -3.7096   -1.0209 C   0  0  0  0  0  0  0  0  0  0  0  0
   -2.3621   -2.9571   -1.9450 C   0  0  0  0  0  0  0  0  0  0  0  0
   -1.0715   -2.5134   -1.6383 C   0  0  0  0  0  0  0  0  0  0  0  0
   -4.3805   -4.0659   -1.1950 O   0  0  0  0  0  0  0  0  0  0  0  0
   -5.3070   -3.0002   -1.4698 C   0  0  0  0  0  0  0  0  0  0  0  0
   -5.5299   -2.0312   -0.2982 C   0  0  0  0  0  0  0  0  0  0  0  0
   -4.4756   -0.9174   -0.2047 C   0  0  0  0  0  0  0  0  0  0  0  0
   -4.7287    0.0147    0.9637 C   0  0  0  0  0  0  0  0  0  0  0  0
   -5.6611   -0.1483    1.7649 O   0  0  0  0  0  0  0  0  0  0  0  0
   -3.8871    1.0825    1.1267 N   0  0  0  0  0  0  0  0  0  0  0  0
   -2.5764    1.2305    0.5024 C   0  0  2  0  0  0  0  0  0  0  0  0
   -1.5631    0.4168    1.3176 C   0  0  0  0  0  0  0  0  0  0  0  0
   -1.5345    0.4090    2.5387 O   0  0  0  0  0  0  0  0  0  0  0  0
   -0.6239   -0.2297    0.5586 N   0  0  0  0  0  0  0  0  0  0  0  0
   -2.1212    2.6806    0.5086 C   0  0  0  0  0  0  0  0  0  0  0  0
   -0.7737    2.7717   -0.1571 C   0  0  0  0  0  0  0  0  0  0  0  0
   -0.4736    2.0809   -1.1230 O   0  0  0  0  0  0  0  0  0  0  0  0
    0.1077    3.6484    0.3937 N   0  0  0  0  0  0  0  0  0  0  0  0
    1.6114   -0.3023    1.6286 C   0  0  2  0  0  0  0  0  0  0  0  0
    1.2099    0.5461    2.7287 O   0  0  0  0  0  0  0  0  0  0  0  0
    2.2582    0.6020    0.5668 C   0  0  0  0  0  0  0  0  0  0  0  0
    3.1507    1.5510    1.2580 N   0  0  0  0  0  0  0  0  0  0  0  0
    3.7525    2.8568    0.4052 S   0  0  0  0  0  0  0  0  0  0  0  0
    4.2055    3.7892    1.4210 O   0  0  0  0  0  0  0  0  0  0  0  0
    2.7532    3.2471   -0.5575 O   0  0  0  0  0  0  0  0  0  0  0  0
    5.1649    2.2436   -0.4492 C   0  0  0  0  0  0  0  0  0  0  0  0
    6.4312    2.4379    0.0980 C   0  0  0  0  0  0  0  0  0  0  0  0
    7.5578    1.9807   -0.5840 C   0  0  0  0  0  0  0  0  0  0  0  0
    7.4157    1.3507   -1.8216 C   0  0  0  0  0  0  0  0  0  0  0  0
    6.1474    1.1835   -2.3817 C   0  0  0  0  0  0  0  0  0  0  0  0
    5.0180    1.6415   -1.6993 C   0  0  0  0  0  0  0  0  0  0  0  0
   -0.0396   -1.6164    1.9771 H   0  0  0  0  0  0  0  0  0  0  0  0
    1.4836   -2.8853    0.4946 H   0  0  0  0  0  0  0  0  0  0  0  0
    1.2969   -1.6820   -0.7892 H   0  0  0  0  0  0  0  0  0  0  0  0
   -0.6983   -3.9947    1.3927 H   0  0  0  0  0  0  0  0  0  0  0  0
   -2.9913   -4.7744    0.8490 H   0  0  0  0  0  0  0  0  0  0  0  0
   -2.8164   -2.6829   -2.8895 H   0  0  0  0  0  0  0  0  0  0  0  0
   -0.5520   -1.8635   -2.3377 H   0  0  0  0  0  0  0  0  0  0  0  0
   -5.0463   -2.4526   -2.3812 H   0  0  0  0  0  0  0  0  0  0  0  0
   -6.2550   -3.5226   -1.6693 H   0  0  0  0  0  0  0  0  0  0  0  0
   -5.5701   -2.5897    0.6438 H   0  0  0  0  0  0  0  0  0  0  0  0
   -6.5079   -1.5475   -0.4255 H   0  0  0  0  0  0  0  0  0  0  0  0
   -3.4767   -1.3363   -0.0780 H   0  0  0  0  0  0  0  0  0  0  0  0
   -4.4795   -0.3275   -1.1255 H   0  0  0  0  0  0  0  0  0  0  0  0
   -3.9931    1.5161    2.0387 H   0  0  0  0  0  0  0  0  0  0  0  0
   -2.6195    0.8564   -0.5228 H   0  0  0  0  0  0  0  0  0  0  0  0
   -0.5919   -0.0238   -0.4379 H   0  0  0  0  0  0  0  0  0  0  0  0
   -2.8293    3.2769   -0.0716 H   0  0  0  0  0  0  0  0  0  0  0  0
   -2.0959    3.0733    1.5310 H   0  0  0  0  0  0  0  0  0  0  0  0
   -0.0968    4.1899    1.2226 H   0  0  0  0  0  0  0  0  0  0  0  0
    1.0544    3.6864    0.0022 H   0  0  0  0  0  0  0  0  0  0  0  0
    2.3656   -0.9897    2.0277 H   0  0  0  0  0  0  0  0  0  0  0  0
    0.2429    0.4245    2.8600 H   0  0  0  0  0  0  0  0  0  0  0  0
    2.8279    0.0267   -0.1594 H   0  0  0  0  0  0  0  0  0  0  0  0
    1.4792    1.1584    0.0501 H   0  0  0  0  0  0  0  0  0  0  0  0
    2.7289    1.8788    2.1383 H   0  0  0  0  0  0  0  0  0  0  0  0
    6.5302    2.9404    1.0569 H   0  0  0  0  0  0  0  0  0  0  0  0
    8.5438    2.1181   -0.1483 H   0  0  0  0  0  0  0  0  0  0  0  0
    8.2957    0.9941   -2.3527 H   0  0  0  0  0  0  0  0  0  0  0  0
    6.0380    0.6985   -3.3487 H   0  0  0  0  0  0  0  0  0  0  0  0
    4.0295    1.5251   -2.1347 H   0  0  0  0  0  0  0  0  0  0  0  0
  1 24  1  0  0  0  0
  1 37  1  1  0  0  0
  2 38  1  0  0  0  0
  2  1  1  0  0  0  0
  3  2  1  0  0  0  0
  3  4  2  0  0  0  0
  4 40  1  0  0  0  0
  5  4  1  0  0  0  0
  5 41  1  0  0  0  0
  6  5  2  0  0  0  0
  7  8  2  0  0  0  0
  7  6  1  0  0  0  0
  8  3  1  0  0  0  0
  9  6  1  0  0  0  0
 10  9  1  0  0  0  0
 10 11  1  0  0  0  0
 11 12  1  0  0  0  0
 11 46  1  0  0  0  0
 12 48  1  0  0  0  0
 12 13  1  0  0  0  0
 13 15  1  0  0  0  0
 13 14  2  0  0  0  0
 15 50  1  0  0  0  0
 16 51  1  6  0  0  0
 16 20  1  0  0  0  0
 16 15  1  0  0  0  0
 16 17  1  0  0  0  0
 17 18  2  0  0  0  0
 19  1  1  0  0  0  0
 19 17  1  0  0  0  0
 20 54  1  0  0  0  0
 21 23  1  0  0  0  0
 21 20  1  0  0  0  0
 22 21  2  0  0  0  0
 23 55  1  0  0  0  0
 24 57  1  1  0  0  0
 24 25  1  0  0  0  0
 25 58  1  0  0  0  0
 26 27  1  0  0  0  0
 26 24  1  0  0  0  0
 27 61  1  0  0  0  0
 28 27  1  0  0  0  0
 28 29  2  0  0  0  0
 30 28  2  0  0  0  0
 31 32  1  0  0  0  0
 31 28  1  0  0  0  0
 32 62  1  0  0  0  0
 33 63  1  0  0  0  0
 33 32  2  0  0  0  0
 34 33  1  0  0  0  0
 35 34  2  0  0  0  0
 35 36  1  0  0  0  0
 36 31  2  0  0  0  0
 39  2  1  0  0  0  0
 42  7  1  0  0  0  0
 43  8  1  0  0  0  0
 44 10  1  0  0  0  0
 45 10  1  0  0  0  0
 47 11  1  0  0  0  0
 49 12  1  0  0  0  0
 52 19  1  0  0  0  0
 53 20  1  0  0  0  0
 56 23  1  0  0  0  0
 59 26  1  0  0  0  0
 60 26  1  0  0  0  0
 64 34  1  0  0  0  0
 65 35  1  0  0  0  0
 66 36  1  0  0  0  0
M  END
