35.2988
 OpenBabel10231816213D

 61 65  0  0  0  0  0  0  0  0999 V2000
    8.3949    1.5456   -1.9692 N   0  0  0  0  0  0  0  0  0  0  0  0
    8.0220    1.2888   -0.6998 C   0  0  0  0  0  0  0  0  0  0  0  0
    6.7594    0.8504   -0.3381 C   0  0  0  0  0  0  0  0  0  0  0  0
    5.7878    0.6397   -1.3232 C   0  0  0  0  0  0  0  0  0  0  0  0
    6.1725    0.8898   -2.6437 C   0  0  0  0  0  0  0  0  0  0  0  0
    7.4550    1.3414   -2.9129 C   0  0  0  0  0  0  0  0  0  0  0  0
    4.5145    0.1909   -1.0066 N   0  0  0  0  0  0  0  0  0  0  0  0
    4.2391   -0.3997    0.2982 C   0  0  0  0  0  0  0  0  0  0  0  0
    2.9991   -1.2836    0.1949 C   0  0  0  0  0  0  0  0  0  0  0  0
    1.7653   -0.4284   -0.1271 C   0  0  0  0  0  0  0  0  0  0  0  0
    2.1252    0.7043   -1.1077 C   0  0  0  0  0  0  0  0  0  0  0  0
    3.3864    0.4053   -1.9096 C   0  0  0  0  0  0  0  0  0  0  0  0
    1.2185    0.1447    1.1724 C   0  0  0  0  0  0  0  0  0  0  0  0
    1.4853    1.3140    1.5258 O   0  0  0  0  0  0  0  0  0  0  0  0
    0.4812   -0.6735    1.9932 N   0  0  0  0  0  0  0  0  0  0  0  0
   -0.1882   -0.0885    3.1526 C   0  0  0  0  0  0  0  0  0  0  0  0
   -1.6962    0.0109    2.9074 C   0  0  0  0  0  0  0  0  0  0  0  0
   -2.2294   -1.3125    2.4992 N   0  0  0  0  0  0  0  0  0  0  0  0
   -1.5256   -1.9465    1.3658 C   0  0  0  0  0  0  0  0  0  0  0  0
   -0.0252   -2.0111    1.6617 C   0  0  0  0  0  0  0  0  0  0  0  0
   -3.8871   -1.5253    2.5928 S   0  0  0  0  0  0  0  0  0  0  0  0
   -4.3175   -0.9999    3.8632 O   0  0  0  0  0  0  0  0  0  0  0  0
   -4.1668   -2.8987    2.2107 O   0  0  0  0  0  0  0  0  0  0  0  0
   -4.5311   -0.4660    1.3087 C   0  0  0  0  0  0  0  0  0  0  0  0
   -4.9232   -1.0218    0.0863 C   0  0  0  0  0  0  0  0  0  0  0  0
   -5.4353   -0.2022   -0.9293 C   0  0  0  0  0  0  0  0  0  0  0  0
   -5.5709    1.1907   -0.7100 C   0  0  0  0  0  0  0  0  0  0  0  0
   -5.1883    1.7279    0.5321 C   0  0  0  0  0  0  0  0  0  0  0  0
   -4.6806    0.8998    1.5408 C   0  0  0  0  0  0  0  0  0  0  0  0
   -6.0858    2.0042   -1.7324 C   0  0  0  0  0  0  0  0  0  0  0  0
   -6.4605    1.4399   -2.9553 C   0  0  0  0  0  0  0  0  0  0  0  0
   -6.3278    0.0728   -3.1736 C   0  0  0  0  0  0  0  0  0  0  0  0
   -5.8173   -0.7476   -2.1656 C   0  0  0  0  0  0  0  0  0  0  0  0
   -7.0897    2.4442   -4.2020 Cl  0  0  0  0  0  0  0  0  0  0  0  0
    8.7870    1.4563    0.0526 H   0  0  0  0  0  0  0  0  0  0  0  0
    6.5469    0.6907    0.7122 H   0  0  0  0  0  0  0  0  0  0  0  0
    5.4961    0.7206   -3.4727 H   0  0  0  0  0  0  0  0  0  0  0  0
    7.7690    1.5470   -3.9323 H   0  0  0  0  0  0  0  0  0  0  0  0
    5.0870   -1.0195    0.6049 H   0  0  0  0  0  0  0  0  0  0  0  0
    4.0943    0.3866    1.0476 H   0  0  0  0  0  0  0  0  0  0  0  0
    2.8636   -1.8440    1.1232 H   0  0  0  0  0  0  0  0  0  0  0  0
    3.1469   -2.0189   -0.6083 H   0  0  0  0  0  0  0  0  0  0  0  0
    0.9877   -1.0528   -0.5879 H   0  0  0  0  0  0  0  0  0  0  0  0
    1.2864    0.8979   -1.7855 H   0  0  0  0  0  0  0  0  0  0  0  0
    2.2870    1.6372   -0.5535 H   0  0  0  0  0  0  0  0  0  0  0  0
    3.2404   -0.4847   -2.5332 H   0  0  0  0  0  0  0  0  0  0  0  0
    3.5812    1.2548   -2.5702 H   0  0  0  0  0  0  0  0  0  0  0  0
    0.2289    0.9001    3.3681 H   0  0  0  0  0  0  0  0  0  0  0  0
    0.0039   -0.7399    4.0106 H   0  0  0  0  0  0  0  0  0  0  0  0
   -1.9020    0.7479    2.1250 H   0  0  0  0  0  0  0  0  0  0  0  0
   -2.1880    0.3171    3.8346 H   0  0  0  0  0  0  0  0  0  0  0  0
   -1.7066   -1.3803    0.4468 H   0  0  0  0  0  0  0  0  0  0  0  0
   -1.9013   -2.9660    1.2491 H   0  0  0  0  0  0  0  0  0  0  0  0
    0.1510   -2.6360    2.5443 H   0  0  0  0  0  0  0  0  0  0  0  0
    0.5275   -2.4487    0.8328 H   0  0  0  0  0  0  0  0  0  0  0  0
   -4.8264   -2.0939   -0.0709 H   0  0  0  0  0  0  0  0  0  0  0  0
   -5.2873    2.7945    0.7228 H   0  0  0  0  0  0  0  0  0  0  0  0
   -4.3923    1.3320    2.4993 H   0  0  0  0  0  0  0  0  0  0  0  0
   -6.1989    3.0775   -1.5826 H   0  0  0  0  0  0  0  0  0  0  0  0
   -6.6235   -0.3588   -4.1310 H   0  0  0  0  0  0  0  0  0  0  0  0
   -5.7185   -1.8168   -2.3454 H   0  0  0  0  0  0  0  0  0  0  0  0
  1  2  2  0  0  0  0
  2  3  1  0  0  0  0
  2 35  1  0  0  0  0
  3 36  1  0  0  0  0
  4  7  1  0  0  0  0
  4  3  2  0  0  0  0
  5  4  1  0  0  0  0
  6  5  2  0  0  0  0
  6  1  1  0  0  0  0
  7  8  1  0  0  0  0
  8 39  1  0  0  0  0
  8 40  1  0  0  0  0
  9  8  1  0  0  0  0
  9 41  1  0  0  0  0
 10  9  1  0  0  0  0
 10 13  1  0  0  0  0
 11 45  1  0  0  0  0
 11 10  1  0  0  0  0
 12 11  1  0  0  0  0
 12  7  1  0  0  0  0
 13 14  2  0  0  0  0
 13 15  1  0  0  0  0
 15 16  1  0  0  0  0
 16 48  1  0  0  0  0
 16 49  1  0  0  0  0
 17 16  1  0  0  0  0
 17 51  1  0  0  0  0
 18 21  1  0  0  0  0
 18 17  1  0  0  0  0
 19 20  1  0  0  0  0
 19 18  1  0  0  0  0
 20 15  1  0  0  0  0
 20 54  1  0  0  0  0
 21 22  2  0  0  0  0
 23 21  2  0  0  0  0
 24 29  1  0  0  0  0
 24 21  1  0  0  0  0
 25 24  2  0  0  0  0
 26 27  1  0  0  0  0
 26 25  1  0  0  0  0
 27 28  1  0  0  0  0
 28 57  1  0  0  0  0
 28 29  2  0  0  0  0
 29 58  1  0  0  0  0
 30 59  1  0  0  0  0
 30 27  2  0  0  0  0
 31 30  1  0  0  0  0
 32 31  2  0  0  0  0
 32 33  1  0  0  0  0
 33 26  2  0  0  0  0
 34 31  1  0  0  0  0
 37  5  1  0  0  0  0
 38  6  1  0  0  0  0
 42  9  1  0  0  0  0
 43 10  1  0  0  0  0
 44 11  1  0  0  0  0
 46 12  1  0  0  0  0
 47 12  1  0  0  0  0
 50 17  1  0  0  0  0
 52 19  1  0  0  0  0
 53 19  1  0  0  0  0
 55 20  1  0  0  0  0
 56 25  1  0  0  0  0
 60 32  1  0  0  0  0
 61 33  1  0  0  0  0
M  END
