35.0837
 OpenBabel10231816213D

 61 65  0  0  0  0  0  0  0  0999 V2000
    8.9079    1.4653   -0.9040 N   0  0  0  0  0  0  0  0  0  0  0  0
    8.4845    0.2233   -0.5940 C   0  0  0  0  0  0  0  0  0  0  0  0
    7.1501   -0.1573   -0.5659 C   0  0  0  0  0  0  0  0  0  0  0  0
    6.1513    0.7815   -0.8495 C   0  0  0  0  0  0  0  0  0  0  0  0
    6.5858    2.0692   -1.1907 C   0  0  0  0  0  0  0  0  0  0  0  0
    7.9444    2.3581   -1.2019 C   0  0  0  0  0  0  0  0  0  0  0  0
    4.7941    0.4048   -0.8376 N   0  0  0  0  0  0  0  0  0  0  0  0
    4.3251   -0.2553    0.3889 C   0  0  0  0  0  0  0  0  0  0  0  0
    2.9925   -0.9608    0.1245 C   0  0  0  0  0  0  0  0  0  0  0  0
    1.9457    0.0301   -0.3931 C   0  0  0  0  0  0  0  0  0  0  0  0
    2.4994    0.6925   -1.6585 C   0  0  0  0  0  0  0  0  0  0  0  0
    3.8412    1.3621   -1.3976 C   0  0  0  0  0  0  0  0  0  0  0  0
    0.6380   -0.6742   -0.6815 C   0  0  0  0  0  0  0  0  0  0  0  0
    0.2873   -0.9288   -1.8506 O   0  0  0  0  0  0  0  0  0  0  0  0
   -0.1507   -1.0584    0.3690 N   0  0  0  0  0  0  0  0  0  0  0  0
    0.0763   -0.7365    1.7873 C   0  0  0  0  0  0  0  0  0  0  0  0
   -1.2438   -0.3904    2.4664 C   0  0  0  0  0  0  0  0  0  0  0  0
   -2.1605   -1.5453    2.3942 N   0  0  0  0  0  0  0  0  0  0  0  0
   -1.9303   -2.4956    1.2808 C   0  0  0  0  0  0  0  0  0  0  0  0
   -1.4008   -1.7737    0.0525 C   0  0  0  0  0  0  0  0  0  0  0  0
   -3.7178   -1.3371    2.9580 S   0  0  0  0  0  0  0  0  0  0  0  0
   -3.6240   -0.5270    4.1581 O   0  0  0  0  0  0  0  0  0  0  0  0
   -4.3490   -2.6364    2.9708 O   0  0  0  0  0  0  0  0  0  0  0  0
   -4.5001   -0.3568    1.6903 C   0  0  0  0  0  0  0  0  0  0  0  0
   -5.1335   -0.9803    0.6105 C   0  0  0  0  0  0  0  0  0  0  0  0
   -5.7116   -0.2085   -0.4102 C   0  0  0  0  0  0  0  0  0  0  0  0
   -5.6800    1.2027   -0.3291 C   0  0  0  0  0  0  0  0  0  0  0  0
   -5.0632    1.8108    0.7790 C   0  0  0  0  0  0  0  0  0  0  0  0
   -4.4842    1.0329    1.7865 C   0  0  0  0  0  0  0  0  0  0  0  0
   -6.2676    1.9670   -1.3523 C   0  0  0  0  0  0  0  0  0  0  0  0
   -6.8723    1.3327   -2.4401 C   0  0  0  0  0  0  0  0  0  0  0  0
   -6.8998   -0.0576   -2.5225 C   0  0  0  0  0  0  0  0  0  0  0  0
   -6.3231   -0.8262   -1.5134 C   0  0  0  0  0  0  0  0  0  0  0  0
   -7.5885    2.2747   -3.6894 Cl  0  0  0  0  0  0  0  0  0  0  0  0
    9.2706   -0.4911   -0.3655 H   0  0  0  0  0  0  0  0  0  0  0  0
    6.8998   -1.1896   -0.3520 H   0  0  0  0  0  0  0  0  0  0  0  0
    5.8952    2.8672   -1.4332 H   0  0  0  0  0  0  0  0  0  0  0  0
    8.2960    3.3545   -1.4547 H   0  0  0  0  0  0  0  0  0  0  0  0
    4.1940    0.4840    1.1879 H   0  0  0  0  0  0  0  0  0  0  0  0
    5.0464   -0.9964    0.7387 H   0  0  0  0  0  0  0  0  0  0  0  0
    2.6469   -1.4572    1.0366 H   0  0  0  0  0  0  0  0  0  0  0  0
    3.1364   -1.7454   -0.6314 H   0  0  0  0  0  0  0  0  0  0  0  0
    1.7733    0.8173    0.3486 H   0  0  0  0  0  0  0  0  0  0  0  0
    1.7902    1.4347   -2.0428 H   0  0  0  0  0  0  0  0  0  0  0  0
    2.6138   -0.0732   -2.4402 H   0  0  0  0  0  0  0  0  0  0  0  0
    4.2229    1.7356   -2.3521 H   0  0  0  0  0  0  0  0  0  0  0  0
    3.7149    2.2071   -0.7112 H   0  0  0  0  0  0  0  0  0  0  0  0
    0.5261   -1.6141    2.2748 H   0  0  0  0  0  0  0  0  0  0  0  0
    0.7770    0.0881    1.8850 H   0  0  0  0  0  0  0  0  0  0  0  0
   -1.0701   -0.1561    3.5187 H   0  0  0  0  0  0  0  0  0  0  0  0
   -1.6856    0.4821    1.9760 H   0  0  0  0  0  0  0  0  0  0  0  0
   -2.8464   -3.0359    1.0521 H   0  0  0  0  0  0  0  0  0  0  0  0
   -1.1871   -3.2336    1.6103 H   0  0  0  0  0  0  0  0  0  0  0  0
   -2.1393   -1.0466   -0.3140 H   0  0  0  0  0  0  0  0  0  0  0  0
   -1.2034   -2.4790   -0.7605 H   0  0  0  0  0  0  0  0  0  0  0  0
   -5.1723   -2.0661    0.5603 H   0  0  0  0  0  0  0  0  0  0  0  0
   -5.0305    2.8950    0.8640 H   0  0  0  0  0  0  0  0  0  0  0  0
   -4.0098    1.5162    2.6406 H   0  0  0  0  0  0  0  0  0  0  0  0
   -6.2574    3.0556   -1.3075 H   0  0  0  0  0  0  0  0  0  0  0  0
   -7.3748   -0.5419   -3.3781 H   0  0  0  0  0  0  0  0  0  0  0  0
   -6.3495   -1.9128   -1.5855 H   0  0  0  0  0  0  0  0  0  0  0  0
  1  2  2  0  0  0  0
  2  3  1  0  0  0  0
  2 35  1  0  0  0  0
  3 36  1  0  0  0  0
  4  7  1  0  0  0  0
  4  3  2  0  0  0  0
  5  4  1  0  0  0  0
  6  5  2  0  0  0  0
  6  1  1  0  0  0  0
  7  8  1  0  0  0  0
  8 40  1  0  0  0  0
  8 39  1  0  0  0  0
  9  8  1  0  0  0  0
  9 41  1  0  0  0  0
 10  9  1  0  0  0  0
 10 43  1  0  0  0  0
 11 12  1  0  0  0  0
 11 10  1  0  0  0  0
 12  7  1  0  0  0  0
 12 47  1  0  0  0  0
 13 10  1  0  0  0  0
 13 15  1  0  0  0  0
 14 13  2  0  0  0  0
 15 16  1  0  0  0  0
 16 49  1  0  0  0  0
 16 48  1  0  0  0  0
 16 17  1  0  0  0  0
 17 50  1  0  0  0  0
 18 17  1  0  0  0  0
 18 21  1  0  0  0  0
 19 53  1  0  0  0  0
 19 18  1  0  0  0  0
 20 15  1  0  0  0  0
 20 19  1  0  0  0  0
 21 23  2  0  0  0  0
 21 22  2  0  0  0  0
 24 29  1  0  0  0  0
 24 21  1  0  0  0  0
 25 24  2  0  0  0  0
 26 27  1  0  0  0  0
 26 25  1  0  0  0  0
 27 28  1  0  0  0  0
 28 57  1  0  0  0  0
 28 29  2  0  0  0  0
 29 58  1  0  0  0  0
 30 59  1  0  0  0  0
 30 27  2  0  0  0  0
 31 30  1  0  0  0  0
 32 31  2  0  0  0  0
 32 33  1  0  0  0  0
 33 26  2  0  0  0  0
 34 31  1  0  0  0  0
 37  5  1  0  0  0  0
 38  6  1  0  0  0  0
 42  9  1  0  0  0  0
 44 11  1  0  0  0  0
 45 11  1  0  0  0  0
 46 12  1  0  0  0  0
 51 17  1  0  0  0  0
 52 19  1  0  0  0  0
 54 20  1  0  0  0  0
 55 20  1  0  0  0  0
 56 25  1  0  0  0  0
 60 32  1  0  0  0  0
 61 33  1  0  0  0  0
M  END
