66.3291
 OpenBabel10231816213D

 50 52  0  0  1  0  0  0  0  0999 V2000
    6.4923    0.8526   -0.3301 O   0  0  0  0  0  0  0  0  0  0  0  0
    5.5861    1.6892   -0.8656 C   0  0  0  0  0  0  0  0  0  0  0  0
    5.9227    2.7773   -1.3081 O   0  0  0  0  0  0  0  0  0  0  0  0
    4.1693    1.1813   -0.7871 C   0  0  1  0  0  0  0  0  0  0  0  0
    4.0335   -0.2522   -1.3144 C   0  0  0  0  0  0  0  0  0  0  0  0
    2.5838   -0.7422   -1.2003 C   0  0  0  0  0  0  0  0  0  0  0  0
    2.0395   -0.6676    0.2530 C   0  0  2  0  0  0  0  0  0  0  0  0
    2.2006    0.7963    0.7371 C   0  0  0  0  0  0  0  0  0  0  0  0
    3.6481    1.2852    0.6484 C   0  0  0  0  0  0  0  0  0  0  0  0
    2.8572   -1.5505    1.1355 C   0  0  0  0  0  0  0  0  0  0  0  0
    3.4874   -2.2405    1.8167 N   0  0  0  0  0  0  0  0  0  0  0  0
    0.5866   -1.1625    0.2720 C   0  0  0  0  0  0  0  0  0  0  0  0
    0.3265   -2.5196    0.0057 C   0  0  0  0  0  0  0  0  0  0  0  0
   -0.9704   -3.0259    0.0014 C   0  0  0  0  0  0  0  0  0  0  0  0
   -2.0441   -2.1818    0.2653 C   0  0  0  0  0  0  0  0  0  0  0  0
   -3.3599   -2.5689    0.2754 O   0  0  0  0  0  0  0  0  0  0  0  0
   -3.6409   -3.9287    0.0139 C   0  0  0  0  0  0  0  0  0  0  0  0
   -1.8120   -0.8245    0.5366 C   0  0  0  0  0  0  0  0  0  0  0  0
   -0.5064   -0.3270    0.5482 C   0  0  0  0  0  0  0  0  0  0  0  0
   -2.9351   -0.0784    0.7593 O   0  0  0  0  0  0  0  0  0  0  0  0
   -2.8222    1.3234    0.9767 C   0  0  0  0  0  0  0  0  0  0  0  0
   -2.5922    2.0854   -0.3250 C   0  0  0  0  0  0  0  0  0  0  0  0
   -3.9497    2.0630   -1.0226 C   0  0  0  0  0  0  0  0  0  0  0  0
   -4.9914    1.9490    0.0941 C   0  0  0  0  0  0  0  0  0  0  0  0
   -4.2066    1.8046    1.4016 C   0  0  0  0  0  0  0  0  0  0  0  0
    7.3497    1.3202   -0.4087 H   0  0  0  0  0  0  0  0  0  0  0  0
    3.5660    1.8347   -1.4278 H   0  0  0  0  0  0  0  0  0  0  0  0
    4.3634   -0.3030   -2.3580 H   0  0  0  0  0  0  0  0  0  0  0  0
    4.6945   -0.9283   -0.7569 H   0  0  0  0  0  0  0  0  0  0  0  0
    2.5227   -1.7625   -1.5999 H   0  0  0  0  0  0  0  0  0  0  0  0
    1.9555   -0.1200   -1.8535 H   0  0  0  0  0  0  0  0  0  0  0  0
    1.8423    0.9056    1.7692 H   0  0  0  0  0  0  0  0  0  0  0  0
    1.5878    1.4630    0.1125 H   0  0  0  0  0  0  0  0  0  0  0  0
    3.7069    2.3210    0.9990 H   0  0  0  0  0  0  0  0  0  0  0  0
    4.2801    0.6978    1.3265 H   0  0  0  0  0  0  0  0  0  0  0  0
    1.1473   -3.2092   -0.1903 H   0  0  0  0  0  0  0  0  0  0  0  0
   -1.1065   -4.0792   -0.2126 H   0  0  0  0  0  0  0  0  0  0  0  0
   -3.3243   -4.2074   -0.9960 H   0  0  0  0  0  0  0  0  0  0  0  0
   -3.1858   -4.5835    0.7637 H   0  0  0  0  0  0  0  0  0  0  0  0
   -4.7264   -4.0448    0.0745 H   0  0  0  0  0  0  0  0  0  0  0  0
   -0.3442    0.7200    0.7679 H   0  0  0  0  0  0  0  0  0  0  0  0
   -2.0852    1.5455    1.7552 H   0  0  0  0  0  0  0  0  0  0  0  0
   -1.8151    1.6474   -0.9588 H   0  0  0  0  0  0  0  0  0  0  0  0
   -2.3024    3.1181   -0.1010 H   0  0  0  0  0  0  0  0  0  0  0  0
   -4.0208    1.1960   -1.6910 H   0  0  0  0  0  0  0  0  0  0  0  0
   -4.0980    2.9545   -1.6407 H   0  0  0  0  0  0  0  0  0  0  0  0
   -5.6512    2.8224    0.1273 H   0  0  0  0  0  0  0  0  0  0  0  0
   -5.6318    1.0753   -0.0762 H   0  0  0  0  0  0  0  0  0  0  0  0
   -4.6926    1.1019    2.0872 H   0  0  0  0  0  0  0  0  0  0  0  0
   -4.1345    2.7774    1.9005 H   0  0  0  0  0  0  0  0  0  0  0  0
  2  4  1  0  0  0  0
  2  1  1  0  0  0  0
  3  2  2  0  0  0  0
  4 27  1  6  0  0  0
  4  9  1  0  0  0  0
  5  6  1  0  0  0  0
  5  4  1  0  0  0  0
  5 29  1  0  0  0  0
  6  7  1  0  0  0  0
  7 12  1  1  0  0  0
  7  8  1  0  0  0  0
  7 10  1  0  0  0  0
  8 32  1  0  0  0  0
  9  8  1  0  0  0  0
  9 34  1  0  0  0  0
  9 35  1  0  0  0  0
 10 11  3  0  0  0  0
 12 19  2  0  0  0  0
 13 12  1  0  0  0  0
 14 13  2  0  0  0  0
 14 15  1  0  0  0  0
 15 16  1  0  0  0  0
 15 18  2  0  0  0  0
 17 40  1  0  0  0  0
 17 16  1  0  0  0  0
 17 39  1  0  0  0  0
 18 19  1  0  0  0  0
 18 20  1  0  0  0  0
 19 41  1  0  0  0  0
 20 21  1  0  0  0  0
 21 25  1  0  0  0  0
 21 42  1  0  0  0  0
 22 44  1  0  0  0  0
 22 21  1  0  0  0  0
 23 22  1  0  0  0  0
 23 24  1  0  0  0  0
 24 47  1  0  0  0  0
 24 25  1  0  0  0  0
 25 50  1  0  0  0  0
 25 49  1  0  0  0  0
 26  1  1  0  0  0  0
 28  5  1  0  0  0  0
 30  6  1  0  0  0  0
 31  6  1  0  0  0  0
 33  8  1  0  0  0  0
 36 13  1  0  0  0  0
 37 14  1  0  0  0  0
 38 17  1  0  0  0  0
 43 22  1  0  0  0  0
 45 23  1  0  0  0  0
 46 23  1  0  0  0  0
 48 24  1  0  0  0  0
M  END
