48.5978
 OpenBabel10231816213D

 36 36  0  0  1  0  0  0  0  0999 V2000
    5.3830   -0.1834    0.8477 C   0  0  0  0  0  0  0  0  0  0  0  0
    4.8526   -0.3718   -0.5393 C   0  0  0  0  0  0  0  0  0  0  0  0
    4.2639    0.6751    0.3511 C   0  0  0  0  0  0  0  0  0  0  0  0
    2.9563    0.4307    0.9066 N   0  0  0  0  0  0  0  0  0  0  0  0
    1.8696    0.6748   -0.0542 C   0  0  0  0  0  0  0  0  0  0  0  0
    0.5587    0.1613    0.5960 C   0  0  0  0  0  0  0  0  0  0  0  0
   -0.5883    0.1741   -0.4276 C   0  0  1  0  0  0  0  0  0  0  0  0
   -0.2352   -0.7724   -1.4916 N   0  0  0  0  0  0  0  0  0  0  0  0
   -1.9375   -0.1607    0.2594 C   0  0  0  0  0  0  0  0  0  0  0  0
   -3.1550    0.0979   -0.6396 C   0  0  0  0  0  0  0  0  0  0  0  0
   -4.4760   -0.2288    0.0702 C   0  0  0  0  0  0  0  0  0  0  0  0
   -5.6887   -0.0086   -0.8317 C   0  0  0  0  0  0  0  0  0  0  0  0
    0.7559   -1.1482    1.1132 O   0  0  0  0  0  0  0  0  0  0  0  0
    0.2845    1.0243    1.7012 O   0  0  0  0  0  0  0  0  0  0  0  0
    5.1441   -0.9383    1.5869 H   0  0  0  0  0  0  0  0  0  0  0  0
    6.3570    0.2748    0.9715 H   0  0  0  0  0  0  0  0  0  0  0  0
    4.2466   -1.2493   -0.7382 H   0  0  0  0  0  0  0  0  0  0  0  0
    5.4494   -0.0371   -1.3801 H   0  0  0  0  0  0  0  0  0  0  0  0
    4.4895    1.7151    0.1229 H   0  0  0  0  0  0  0  0  0  0  0  0
    2.7838    0.9762    1.7496 H   0  0  0  0  0  0  0  0  0  0  0  0
    2.0736    0.1210   -0.9692 H   0  0  0  0  0  0  0  0  0  0  0  0
    1.7872    1.7450   -0.2868 H   0  0  0  0  0  0  0  0  0  0  0  0
   -0.6652    1.1815   -0.8441 H   0  0  0  0  0  0  0  0  0  0  0  0
   -0.9809   -0.8541   -2.1771 H   0  0  0  0  0  0  0  0  0  0  0  0
   -0.0796   -1.6851   -1.0783 H   0  0  0  0  0  0  0  0  0  0  0  0
   -1.9402   -1.2001    0.5990 H   0  0  0  0  0  0  0  0  0  0  0  0
   -2.0379    0.4603    1.1615 H   0  0  0  0  0  0  0  0  0  0  0  0
   -3.0751   -0.5082   -1.5457 H   0  0  0  0  0  0  0  0  0  0  0  0
   -3.1618    1.1488   -0.9535 H   0  0  0  0  0  0  0  0  0  0  0  0
   -4.4612   -1.2722    0.4025 H   0  0  0  0  0  0  0  0  0  0  0  0
   -4.5784    0.3906    0.9683 H   0  0  0  0  0  0  0  0  0  0  0  0
   -5.6391   -0.6378   -1.7266 H   0  0  0  0  0  0  0  0  0  0  0  0
   -6.6184   -0.2571   -0.3040 H   0  0  0  0  0  0  0  0  0  0  0  0
   -5.7617    1.0348   -1.1562 H   0  0  0  0  0  0  0  0  0  0  0  0
    1.7209   -1.1731    1.2996 H   0  0  0  0  0  0  0  0  0  0  0  0
    0.1034    0.3997    2.4366 H   0  0  0  0  0  0  0  0  0  0  0  0
  1 16  1  0  0  0  0
  1 15  1  0  0  0  0
  2  3  1  0  0  0  0
  2  1  1  0  0  0  0
  3  1  1  0  0  0  0
  3  4  1  0  0  0  0
  4 20  1  0  0  0  0
  5  6  1  0  0  0  0
  5  4  1  0  0  0  0
  6 13  1  0  0  0  0
  6 14  1  0  0  0  0
  7 23  1  6  0  0  0
  7  9  1  0  0  0  0
  7  6  1  0  0  0  0
  8 25  1  0  0  0  0
  8  7  1  0  0  0  0
  9 26  1  0  0  0  0
  9 27  1  0  0  0  0
 10 11  1  0  0  0  0
 10  9  1  0  0  0  0
 11 30  1  0  0  0  0
 11 31  1  0  0  0  0
 12 33  1  0  0  0  0
 12 11  1  0  0  0  0
 13 35  1  0  0  0  0
 14 36  1  0  0  0  0
 17  2  1  0  0  0  0
 18  2  1  0  0  0  0
 19  3  1  0  0  0  0
 21  5  1  0  0  0  0
 22  5  1  0  0  0  0
 24  8  1  0  0  0  0
 28 10  1  0  0  0  0
 29 10  1  0  0  0  0
 32 12  1  0  0  0  0
 34 12  1  0  0  0  0
M  END
