49.326
 OpenBabel10231816213D

 40 42  0  0  0  0  0  0  0  0999 V2000
    6.4012    0.6345    3.2145 O   0  0  0  0  0  0  0  0  0  0  0  0
    5.6629    1.3115    2.4784 C   0  0  0  0  0  0  0  0  0  0  0  0
    5.9634    2.7525    2.1865 C   0  0  0  0  0  0  0  0  0  0  0  0
    4.4527    0.6871    1.8691 C   0  0  0  0  0  0  0  0  0  0  0  0
    4.1825   -0.6558    2.1481 C   0  0  0  0  0  0  0  0  0  0  0  0
    3.0587   -1.2805    1.5969 C   0  0  0  0  0  0  0  0  0  0  0  0
    2.1900   -0.5690    0.7611 C   0  0  0  0  0  0  0  0  0  0  0  0
    2.4615    0.7710    0.4851 C   0  0  0  0  0  0  0  0  0  0  0  0
    3.5862    1.3974    1.0342 C   0  0  0  0  0  0  0  0  0  0  0  0
    1.0822   -1.2680    0.2418 N   0  0  0  0  0  0  0  0  0  0  0  0
    0.0626   -0.7667   -0.5536 C   0  0  0  0  0  0  0  0  0  0  0  0
   -0.0136    0.4051   -0.8907 O   0  0  0  0  0  0  0  0  0  0  0  0
   -0.9233   -1.7770   -0.9658 C   0  0  0  0  0  0  0  0  0  0  0  0
   -0.6489   -3.1494   -1.2248 C   0  0  0  0  0  0  0  0  0  0  0  0
   -1.7197   -3.8501   -1.5836 N   0  0  0  0  0  0  0  0  0  0  0  0
   -2.7016   -2.9389   -1.5560 N   0  0  0  0  0  0  0  0  0  0  0  0
   -2.2919   -1.6538   -1.2427 C   0  0  0  0  0  0  0  0  0  0  0  0
   -3.2679   -0.5429   -1.2649 C   0  0  0  0  0  0  0  0  0  0  0  0
   -2.8670    0.7733   -1.5331 C   0  0  0  0  0  0  0  0  0  0  0  0
   -3.7897    1.8210   -1.6016 C   0  0  0  0  0  0  0  0  0  0  0  0
   -3.2519    3.4256   -1.9362 Cl  0  0  0  0  0  0  0  0  0  0  0  0
   -5.1411    1.5627   -1.3994 C   0  0  0  0  0  0  0  0  0  0  0  0
   -6.0984    2.5393   -1.4459 O   0  0  0  0  0  0  0  0  0  0  0  0
   -5.5780    0.2707   -1.1368 C   0  0  0  0  0  0  0  0  0  0  0  0
   -4.6470   -0.7684   -1.0754 C   0  0  0  0  0  0  0  0  0  0  0  0
   -5.0879   -2.0448   -0.8265 O   0  0  0  0  0  0  0  0  0  0  0  0
    5.1501    3.3935    2.5360 H   0  0  0  0  0  0  0  0  0  0  0  0
    6.1189    2.9037    1.1153 H   0  0  0  0  0  0  0  0  0  0  0  0
    6.8805    3.0372    2.7136 H   0  0  0  0  0  0  0  0  0  0  0  0
    4.8564   -1.2105    2.7985 H   0  0  0  0  0  0  0  0  0  0  0  0
    2.8711   -2.3269    1.8279 H   0  0  0  0  0  0  0  0  0  0  0  0
    1.8054    1.3468   -0.1589 H   0  0  0  0  0  0  0  0  0  0  0  0
    3.7613    2.4415    0.7933 H   0  0  0  0  0  0  0  0  0  0  0  0
    0.9999   -2.2242    0.5485 H   0  0  0  0  0  0  0  0  0  0  0  0
    0.3020   -3.6663   -1.1835 H   0  0  0  0  0  0  0  0  0  0  0  0
   -3.6530   -3.2474   -1.7530 H   0  0  0  0  0  0  0  0  0  0  0  0
   -1.8280    1.0056   -1.7113 H   0  0  0  0  0  0  0  0  0  0  0  0
   -5.6530    3.3860   -1.6376 H   0  0  0  0  0  0  0  0  0  0  0  0
   -6.6380    0.0985   -0.9849 H   0  0  0  0  0  0  0  0  0  0  0  0
   -6.0495   -2.0240   -0.6828 H   0  0  0  0  0  0  0  0  0  0  0  0
  2  1  2  0  0  0  0
  3  2  1  0  0  0  0
  3 27  1  0  0  0  0
  3 29  1  0  0  0  0
  4  5  1  0  0  0  0
  4  2  1  0  0  0  0
  5 30  1  0  0  0  0
  6 31  1  0  0  0  0
  6  5  2  0  0  0  0
  7  6  1  0  0  0  0
  8  7  2  0  0  0  0
  8  9  1  0  0  0  0
  9  4  2  0  0  0  0
 10 34  1  0  0  0  0
 10  7  1  0  0  0  0
 11 10  1  0  0  0  0
 12 11  2  0  0  0  0
 13 11  1  0  0  0  0
 14 35  1  0  0  0  0
 14 13  1  0  0  0  0
 15 16  1  0  0  0  0
 15 14  2  0  0  0  0
 16 17  1  0  0  0  0
 17 13  2  0  0  0  0
 18 17  1  0  0  0  0
 18 25  2  0  0  0  0
 19 18  1  0  0  0  0
 20 19  2  0  0  0  0
 20 22  1  0  0  0  0
 21 20  1  0  0  0  0
 22 24  2  0  0  0  0
 23 22  1  0  0  0  0
 24 25  1  0  0  0  0
 24 39  1  0  0  0  0
 25 26  1  0  0  0  0
 26 40  1  0  0  0  0
 28  3  1  0  0  0  0
 32  8  1  0  0  0  0
 33  9  1  0  0  0  0
 36 16  1  0  0  0  0
 37 19  1  0  0  0  0
 38 23  1  0  0  0  0
M  END
