121.182
 OpenBabel10231816213D

 34 35  0  0  1  0  0  0  0  0999 V2000
   -1.3054   -1.0287   -0.5949 C   0  0  1  0  0  0  0  0  0  0  0  0
   -0.0563   -0.3954   -0.1027 N   0  0  0  0  0  0  0  0  0  0  0  0
    1.0368   -0.4993   -1.0739 C   0  0  0  0  0  0  0  0  0  0  0  0
    2.3006    0.0774   -0.4881 C   0  0  0  0  0  0  0  0  0  0  0  0
    3.4045   -0.7359   -0.2071 C   0  0  0  0  0  0  0  0  0  0  0  0
    4.5613   -0.1932    0.3566 C   0  0  0  0  0  0  0  0  0  0  0  0
    4.6246    1.1664    0.6527 C   0  0  0  0  0  0  0  0  0  0  0  0
    3.5313    1.9883    0.3860 C   0  0  0  0  0  0  0  0  0  0  0  0
    2.3768    1.4486   -0.1820 C   0  0  0  0  0  0  0  0  0  0  0  0
   -2.1883   -1.3845    0.6316 C   0  0  1  0  0  0  0  0  0  0  0  0
   -1.3897   -1.6927    1.7807 O   0  0  0  0  0  0  0  0  0  0  0  0
   -3.1004   -0.1637    0.8770 C   0  0  1  0  0  0  0  0  0  0  0  0
   -2.8689    0.3880    2.1747 O   0  0  0  0  0  0  0  0  0  0  0  0
   -2.7750    0.8389   -0.2447 C   0  0  1  0  0  0  0  0  0  0  0  0
   -1.8150    1.7900    0.2609 O   0  0  0  0  0  0  0  0  0  0  0  0
   -2.1596   -0.0029   -1.3728 C   0  0  2  0  0  0  0  0  0  0  0  0
   -3.4125   -0.7844   -2.4553 S   0  0  0  0  0  0  0  0  0  0  0  0
   -1.0732   -1.9362   -1.1638 H   0  0  0  0  0  0  0  0  0  0  0  0
    0.2246   -0.9176    0.7403 H   0  0  0  0  0  0  0  0  0  0  0  0
    1.2024   -1.5455   -1.3621 H   0  0  0  0  0  0  0  0  0  0  0  0
    0.7965    0.0586   -1.9883 H   0  0  0  0  0  0  0  0  0  0  0  0
    3.3716   -1.8013   -0.4217 H   0  0  0  0  0  0  0  0  0  0  0  0
    5.4132   -0.8336    0.5691 H   0  0  0  0  0  0  0  0  0  0  0  0
    5.5230    1.5869    1.0973 H   0  0  0  0  0  0  0  0  0  0  0  0
    3.5747    3.0487    0.6248 H   0  0  0  0  0  0  0  0  0  0  0  0
    1.5267    2.1009   -0.3784 H   0  0  0  0  0  0  0  0  0  0  0  0
   -2.7953   -2.2688    0.4062 H   0  0  0  0  0  0  0  0  0  0  0  0
   -1.6792   -1.0524    2.4674 H   0  0  0  0  0  0  0  0  0  0  0  0
   -4.1480   -0.4809    0.8133 H   0  0  0  0  0  0  0  0  0  0  0  0
   -2.4324    1.2540    2.0135 H   0  0  0  0  0  0  0  0  0  0  0  0
   -3.6551    1.4124   -0.5499 H   0  0  0  0  0  0  0  0  0  0  0  0
   -0.9417    1.3306    0.2641 H   0  0  0  0  0  0  0  0  0  0  0  0
   -1.5325    0.6164   -2.0229 H   0  0  0  0  0  0  0  0  0  0  0  0
   -4.1403   -1.3891   -1.5074 H   0  0  0  0  0  0  0  0  0  0  0  0
  1 18  1  6  0  0  0
  1  2  1  0  0  0  0
  1 10  1  0  0  0  0
  2 19  1  0  0  0  0
  3  4  1  0  0  0  0
  3  2  1  0  0  0  0
  4  5  2  0  0  0  0
  4  9  1  0  0  0  0
  5  6  1  0  0  0  0
  6 23  1  0  0  0  0
  6  7  2  0  0  0  0
  7 24  1  0  0  0  0
  8 25  1  0  0  0  0
  8  7  1  0  0  0  0
  9  8  2  0  0  0  0
 10 27  1  6  0  0  0
 10 12  1  0  0  0  0
 10 11  1  0  0  0  0
 11 28  1  0  0  0  0
 12 29  1  6  0  0  0
 12 13  1  0  0  0  0
 14 31  1  6  0  0  0
 14 15  1  0  0  0  0
 14 12  1  0  0  0  0
 15 32  1  0  0  0  0
 16 33  1  6  0  0  0
 16  1  1  0  0  0  0
 16 14  1  0  0  0  0
 17 34  1  0  0  0  0
 17 16  1  0  0  0  0
 20  3  1  0  0  0  0
 21  3  1  0  0  0  0
 22  5  1  0  0  0  0
 26  9  1  0  0  0  0
 30 13  1  0  0  0  0
M  END
