66.9889
 OpenBabel10231816213D

 50 52  0  0  1  0  0  0  0  0999 V2000
    6.1683    1.3332   -0.2526 O   0  0  0  0  0  0  0  0  0  0  0  0
    5.1173    2.1646   -0.3775 C   0  0  0  0  0  0  0  0  0  0  0  0
    5.2677    3.3676   -0.4645 O   0  0  0  0  0  0  0  0  0  0  0  0
    3.7851    1.4566   -0.3309 C   0  0  1  0  0  0  0  0  0  0  0  0
    3.7098    0.2922   -1.3226 C   0  0  0  0  0  0  0  0  0  0  0  0
    2.3332   -0.3876   -1.2565 C   0  0  0  0  0  0  0  0  0  0  0  0
    1.9881   -0.8868    0.1717 C   0  0  2  0  0  0  0  0  0  0  0  0
    2.1037    0.3052    1.1590 C   0  0  0  0  0  0  0  0  0  0  0  0
    3.4808    0.9822    1.0905 C   0  0  0  0  0  0  0  0  0  0  0  0
    3.0032   -1.9043    0.5633 C   0  0  0  0  0  0  0  0  0  0  0  0
    3.7843   -2.6971    0.8746 N   0  0  0  0  0  0  0  0  0  0  0  0
    0.5702   -1.4828    0.2087 C   0  0  0  0  0  0  0  0  0  0  0  0
    0.3282   -2.8157    0.5893 C   0  0  0  0  0  0  0  0  0  0  0  0
   -0.9628   -3.3422    0.6196 C   0  0  0  0  0  0  0  0  0  0  0  0
   -2.0449   -2.5383    0.2776 C   0  0  0  0  0  0  0  0  0  0  0  0
   -3.3479   -2.9500    0.2691 O   0  0  0  0  0  0  0  0  0  0  0  0
   -3.6153   -4.2911    0.6338 C   0  0  0  0  0  0  0  0  0  0  0  0
   -1.8334   -1.2009   -0.0908 C   0  0  0  0  0  0  0  0  0  0  0  0
   -0.5359   -0.6928   -0.1377 C   0  0  0  0  0  0  0  0  0  0  0  0
   -2.9577   -0.4776   -0.3858 O   0  0  0  0  0  0  0  0  0  0  0  0
   -2.8445    0.9209   -0.6058 C   0  0  0  0  0  0  0  0  0  0  0  0
   -4.2058    1.4415   -1.0756 C   0  0  0  0  0  0  0  0  0  0  0  0
   -4.2629    2.9164   -0.6584 C   0  0  0  0  0  0  0  0  0  0  0  0
   -3.0666    3.1349    0.2790 C   0  0  0  0  0  0  0  0  0  0  0  0
   -2.6034    1.7336    0.6661 C   0  0  0  0  0  0  0  0  0  0  0  0
    6.9634    1.9057   -0.2621 H   0  0  0  0  0  0  0  0  0  0  0  0
    3.0356    2.2050   -0.6182 H   0  0  0  0  0  0  0  0  0  0  0  0
    4.4990   -0.4390   -1.1012 H   0  0  0  0  0  0  0  0  0  0  0  0
    3.8997    0.6458   -2.3425 H   0  0  0  0  0  0  0  0  0  0  0  0
    2.3000   -1.2240   -1.9665 H   0  0  0  0  0  0  0  0  0  0  0  0
    1.5826    0.3411   -1.5913 H   0  0  0  0  0  0  0  0  0  0  0  0
    1.9142   -0.0350    2.1856 H   0  0  0  0  0  0  0  0  0  0  0  0
    1.3407    1.0618    0.9304 H   0  0  0  0  0  0  0  0  0  0  0  0
    4.2584    0.2813    1.4233 H   0  0  0  0  0  0  0  0  0  0  0  0
    3.5145    1.8286    1.7853 H   0  0  0  0  0  0  0  0  0  0  0  0
    1.1421   -3.4818    0.8702 H   0  0  0  0  0  0  0  0  0  0  0  0
   -1.0931   -4.3786    0.9147 H   0  0  0  0  0  0  0  0  0  0  0  0
   -3.1334   -4.9955   -0.0521 H   0  0  0  0  0  0  0  0  0  0  0  0
   -3.3048   -4.4930    1.6641 H   0  0  0  0  0  0  0  0  0  0  0  0
   -4.6986   -4.4145    0.5617 H   0  0  0  0  0  0  0  0  0  0  0  0
   -0.3666    0.3324   -0.4423 H   0  0  0  0  0  0  0  0  0  0  0  0
   -2.0911    1.1353   -1.3700 H   0  0  0  0  0  0  0  0  0  0  0  0
   -4.3445    1.2965   -2.1550 H   0  0  0  0  0  0  0  0  0  0  0  0
   -5.0015    0.8682   -0.5804 H   0  0  0  0  0  0  0  0  0  0  0  0
   -4.2101    3.5874   -1.5252 H   0  0  0  0  0  0  0  0  0  0  0  0
   -5.2147    3.1376   -0.1563 H   0  0  0  0  0  0  0  0  0  0  0  0
   -3.3176    3.7464    1.1532 H   0  0  0  0  0  0  0  0  0  0  0  0
   -2.2650    3.6611   -0.2558 H   0  0  0  0  0  0  0  0  0  0  0  0
   -3.2100    1.3325    1.4853 H   0  0  0  0  0  0  0  0  0  0  0  0
   -1.5582    1.7134    1.0014 H   0  0  0  0  0  0  0  0  0  0  0  0
  2  4  1  0  0  0  0
  2  1  1  0  0  0  0
  3  2  2  0  0  0  0
  4 27  1  6  0  0  0
  4  9  1  0  0  0  0
  5  6  1  0  0  0  0
  5 28  1  0  0  0  0
  5  4  1  0  0  0  0
  6  7  1  0  0  0  0
  7 12  1  1  0  0  0
  7 10  1  0  0  0  0
  7  8  1  0  0  0  0
  8 32  1  0  0  0  0
  9  8  1  0  0  0  0
  9 34  1  0  0  0  0
  9 35  1  0  0  0  0
 10 11  3  0  0  0  0
 12 13  2  0  0  0  0
 13 14  1  0  0  0  0
 13 36  1  0  0  0  0
 14 37  1  0  0  0  0
 15 14  2  0  0  0  0
 16 15  1  0  0  0  0
 16 17  1  0  0  0  0
 17 39  1  0  0  0  0
 18 15  1  0  0  0  0
 19 18  2  0  0  0  0
 19 12  1  0  0  0  0
 20 18  1  0  0  0  0
 21 20  1  0  0  0  0
 21 25  1  0  0  0  0
 22 23  1  0  0  0  0
 22 21  1  0  0  0  0
 22 44  1  0  0  0  0
 23 46  1  0  0  0  0
 23 24  1  0  0  0  0
 24 25  1  0  0  0  0
 24 47  1  0  0  0  0
 25 50  1  0  0  0  0
 25 49  1  0  0  0  0
 26  1  1  0  0  0  0
 29  5  1  0  0  0  0
 30  6  1  0  0  0  0
 31  6  1  0  0  0  0
 33  8  1  0  0  0  0
 38 17  1  0  0  0  0
 40 17  1  0  0  0  0
 41 19  1  0  0  0  0
 42 21  1  0  0  0  0
 43 22  1  0  0  0  0
 45 23  1  0  0  0  0
 48 24  1  0  0  0  0
M  END
