70.8184
 OpenBabel10231816213D

 50 52  0  0  1  0  0  0  0  0999 V2000
    6.5587    1.9563   -0.4562 O   0  0  0  0  0  0  0  0  0  0  0  0
    5.9168    0.7927   -0.6690 C   0  0  0  0  0  0  0  0  0  0  0  0
    6.5266   -0.2642   -0.6886 O   0  0  0  0  0  0  0  0  0  0  0  0
    4.4272    0.9915   -0.8527 C   0  0  1  0  0  0  0  0  0  0  0  0
    3.7517   -0.2945   -1.3748 C   0  0  0  0  0  0  0  0  0  0  0  0
    3.2779   -1.1667   -0.2067 C   0  0  0  0  0  0  0  0  0  0  0  0
    2.1633   -0.4708    0.6456 C   0  0  2  0  0  0  0  0  0  0  0  0
    2.3190    1.0665    0.5022 C   0  0  0  0  0  0  0  0  0  0  0  0
    3.7950    1.4555    0.4673 C   0  0  0  0  0  0  0  0  0  0  0  0
    2.3921   -0.8172    2.0719 C   0  0  0  0  0  0  0  0  0  0  0  0
    2.5950   -1.0909    3.1877 N   0  0  0  0  0  0  0  0  0  0  0  0
    0.7597   -0.9578    0.2496 C   0  0  0  0  0  0  0  0  0  0  0  0
    0.4509   -2.3243    0.3899 C   0  0  0  0  0  0  0  0  0  0  0  0
   -0.8097   -2.8239    0.0566 C   0  0  0  0  0  0  0  0  0  0  0  0
   -1.8050   -1.9628   -0.4089 C   0  0  0  0  0  0  0  0  0  0  0  0
   -3.0542   -2.3428   -0.8002 O   0  0  0  0  0  0  0  0  0  0  0  0
   -3.3834   -3.7143   -0.6784 C   0  0  0  0  0  0  0  0  0  0  0  0
   -1.5303   -0.5968   -0.5040 C   0  0  0  0  0  0  0  0  0  0  0  0
   -0.2618   -0.1031   -0.1951 C   0  0  0  0  0  0  0  0  0  0  0  0
   -2.4426    0.2968   -1.0103 O   0  0  0  0  0  0  0  0  0  0  0  0
   -3.4977    0.6200   -0.0964 C   0  0  0  0  0  0  0  0  0  0  0  0
   -4.5890    1.3668   -0.8654 C   0  0  0  0  0  0  0  0  0  0  0  0
   -5.3293    2.1434    0.2115 C   0  0  0  0  0  0  0  0  0  0  0  0
   -4.2253    2.6154    1.1534 C   0  0  0  0  0  0  0  0  0  0  0  0
   -3.0593    1.6351    0.9683 C   0  0  0  0  0  0  0  0  0  0  0  0
    7.4998    1.7072   -0.3352 H   0  0  0  0  0  0  0  0  0  0  0  0
    4.3085    1.7694   -1.6189 H   0  0  0  0  0  0  0  0  0  0  0  0
    2.8878   -0.0301   -1.9973 H   0  0  0  0  0  0  0  0  0  0  0  0
    4.4336   -0.8622   -2.0178 H   0  0  0  0  0  0  0  0  0  0  0  0
    2.9592   -2.1469   -0.5764 H   0  0  0  0  0  0  0  0  0  0  0  0
    4.1519   -1.3630    0.4312 H   0  0  0  0  0  0  0  0  0  0  0  0
    1.8720    1.4268   -0.4329 H   0  0  0  0  0  0  0  0  0  0  0  0
    1.8026    1.5808    1.3230 H   0  0  0  0  0  0  0  0  0  0  0  0
    4.3126    1.0041    1.3235 H   0  0  0  0  0  0  0  0  0  0  0  0
    3.9068    2.5405    0.5750 H   0  0  0  0  0  0  0  0  0  0  0  0
    1.1995   -3.0187    0.7756 H   0  0  0  0  0  0  0  0  0  0  0  0
   -0.9781   -3.8901    0.1678 H   0  0  0  0  0  0  0  0  0  0  0  0
   -2.7510   -4.3317   -1.3237 H   0  0  0  0  0  0  0  0  0  0  0  0
   -3.3226   -4.0469    0.3625 H   0  0  0  0  0  0  0  0  0  0  0  0
   -4.4192   -3.8156   -1.0113 H   0  0  0  0  0  0  0  0  0  0  0  0
   -0.1130    0.9663   -0.2978 H   0  0  0  0  0  0  0  0  0  0  0  0
   -3.9319   -0.2691    0.3796 H   0  0  0  0  0  0  0  0  0  0  0  0
   -4.1365    2.0454   -1.5989 H   0  0  0  0  0  0  0  0  0  0  0  0
   -5.2437    0.6857   -1.4201 H   0  0  0  0  0  0  0  0  0  0  0  0
   -6.0207    1.4816    0.7461 H   0  0  0  0  0  0  0  0  0  0  0  0
   -5.9206    2.9725   -0.1940 H   0  0  0  0  0  0  0  0  0  0  0  0
   -3.9021    3.6302    0.8889 H   0  0  0  0  0  0  0  0  0  0  0  0
   -4.5737    2.6589    2.1913 H   0  0  0  0  0  0  0  0  0  0  0  0
   -2.1562    2.1717    0.6568 H   0  0  0  0  0  0  0  0  0  0  0  0
   -2.8114    1.1230    1.9056 H   0  0  0  0  0  0  0  0  0  0  0  0
  1 26  1  0  0  0  0
  2  1  1  0  0  0  0
  3  2  2  0  0  0  0
  4 27  1  6  0  0  0
  4  2  1  0  0  0  0
  4  9  1  0  0  0  0
  5  4  1  0  0  0  0
  5  6  1  0  0  0  0
  6 31  1  0  0  0  0
  6  7  1  0  0  0  0
  7 12  1  6  0  0  0
  7 10  1  0  0  0  0
  8  7  1  0  0  0  0
  8 33  1  0  0  0  0
  9  8  1  0  0  0  0
  9 35  1  0  0  0  0
  9 34  1  0  0  0  0
 10 11  3  0  0  0  0
 12 13  1  0  0  0  0
 13 36  1  0  0  0  0
 14 37  1  0  0  0  0
 14 13  2  0  0  0  0
 15 14  1  0  0  0  0
 16 17  1  0  0  0  0
 16 15  1  0  0  0  0
 17 39  1  0  0  0  0
 18 15  2  0  0  0  0
 18 19  1  0  0  0  0
 19 12  2  0  0  0  0
 20 18  1  0  0  0  0
 20 21  1  0  0  0  0
 21 42  1  0  0  0  0
 21 25  1  0  0  0  0
 22 21  1  0  0  0  0
 22 23  1  0  0  0  0
 23 45  1  0  0  0  0
 23 24  1  0  0  0  0
 24 48  1  0  0  0  0
 25 24  1  0  0  0  0
 25 50  1  0  0  0  0
 28  5  1  0  0  0  0
 29  5  1  0  0  0  0
 30  6  1  0  0  0  0
 32  8  1  0  0  0  0
 38 17  1  0  0  0  0
 40 17  1  0  0  0  0
 41 19  1  0  0  0  0
 43 22  1  0  0  0  0
 44 22  1  0  0  0  0
 46 23  1  0  0  0  0
 47 24  1  0  0  0  0
 49 25  1  0  0  0  0
M  END
