55.5088
 OpenBabel10231816213D

 40 42  0  0  0  0  0  0  0  0999 V2000
    5.0583    2.7221    3.4945 O   0  0  0  0  0  0  0  0  0  0  0  0
    5.3395    1.9173    2.5928 C   0  0  0  0  0  0  0  0  0  0  0  0
    6.7641    1.6805    2.1768 C   0  0  0  0  0  0  0  0  0  0  0  0
    4.2570    1.1618    1.8989 C   0  0  0  0  0  0  0  0  0  0  0  0
    2.9331    1.3870    2.2885 C   0  0  0  0  0  0  0  0  0  0  0  0
    1.8811    0.7034    1.6666 C   0  0  0  0  0  0  0  0  0  0  0  0
    2.1420   -0.2139    0.6516 C   0  0  0  0  0  0  0  0  0  0  0  0
    3.4672   -0.4410    0.2622 C   0  0  0  0  0  0  0  0  0  0  0  0
    4.5204    0.2426    0.8791 C   0  0  0  0  0  0  0  0  0  0  0  0
    1.1417   -0.9485   -0.0144 N   0  0  0  0  0  0  0  0  0  0  0  0
   -0.2271   -0.8398    0.1457 C   0  0  0  0  0  0  0  0  0  0  0  0
   -0.7765   -0.0163    0.8724 O   0  0  0  0  0  0  0  0  0  0  0  0
   -1.0026   -1.8042   -0.6460 C   0  0  0  0  0  0  0  0  0  0  0  0
   -0.5968   -3.1129   -1.0241 C   0  0  0  0  0  0  0  0  0  0  0  0
   -1.5409   -3.7986   -1.6663 N   0  0  0  0  0  0  0  0  0  0  0  0
   -2.5661   -2.9360   -1.7112 N   0  0  0  0  0  0  0  0  0  0  0  0
   -2.3030   -1.7004   -1.1522 C   0  0  0  0  0  0  0  0  0  0  0  0
   -3.2934   -0.6072   -1.2221 C   0  0  0  0  0  0  0  0  0  0  0  0
   -2.8818    0.7244   -1.0975 C   0  0  0  0  0  0  0  0  0  0  0  0
   -3.7878    1.7799   -1.2055 C   0  0  0  0  0  0  0  0  0  0  0  0
   -3.2255    3.4045   -1.0448 Cl  0  0  0  0  0  0  0  0  0  0  0  0
   -5.1268    1.5170   -1.4456 C   0  0  0  0  0  0  0  0  0  0  0  0
   -5.9932    2.5625   -1.5689 O   0  0  0  0  0  0  0  0  0  0  0  0
   -5.5721    0.2083   -1.5815 C   0  0  0  0  0  0  0  0  0  0  0  0
   -4.6564   -0.8491   -1.4698 C   0  0  0  0  0  0  0  0  0  0  0  0
   -5.0937   -2.1448   -1.6117 O   0  0  0  0  0  0  0  0  0  0  0  0
    7.0426    0.6352    2.3357 H   0  0  0  0  0  0  0  0  0  0  0  0
    6.9062    1.9431    1.1251 H   0  0  0  0  0  0  0  0  0  0  0  0
    7.4211    2.3116    2.7846 H   0  0  0  0  0  0  0  0  0  0  0  0
    2.7282    2.1031    3.0827 H   0  0  0  0  0  0  0  0  0  0  0  0
    0.8625    0.8976    1.9872 H   0  0  0  0  0  0  0  0  0  0  0  0
    3.6964   -1.1528   -0.5280 H   0  0  0  0  0  0  0  0  0  0  0  0
    5.5329    0.0393    0.5466 H   0  0  0  0  0  0  0  0  0  0  0  0
    1.4718   -1.5731   -0.7326 H   0  0  0  0  0  0  0  0  0  0  0  0
    0.3432   -3.6122   -0.8293 H   0  0  0  0  0  0  0  0  0  0  0  0
   -3.4432   -3.2422   -2.1309 H   0  0  0  0  0  0  0  0  0  0  0  0
   -1.8429    0.9662   -0.9121 H   0  0  0  0  0  0  0  0  0  0  0  0
   -6.9008    2.2452   -1.7060 H   0  0  0  0  0  0  0  0  0  0  0  0
   -6.6192   -0.0067   -1.7692 H   0  0  0  0  0  0  0  0  0  0  0  0
   -6.0594   -2.1527   -1.7212 H   0  0  0  0  0  0  0  0  0  0  0  0
  2  1  2  0  0  0  0
  3 27  1  0  0  0  0
  3  2  1  0  0  0  0
  3 29  1  0  0  0  0
  4  5  1  0  0  0  0
  4  2  1  0  0  0  0
  5 30  1  0  0  0  0
  6 31  1  0  0  0  0
  6  5  2  0  0  0  0
  7  6  1  0  0  0  0
  8  7  2  0  0  0  0
  8  9  1  0  0  0  0
  9  4  2  0  0  0  0
 10 11  1  0  0  0  0
 10  7  1  0  0  0  0
 11 12  2  0  0  0  0
 13 11  1  0  0  0  0
 14 35  1  0  0  0  0
 14 13  1  0  0  0  0
 15 14  2  0  0  0  0
 16 15  1  0  0  0  0
 16 17  1  0  0  0  0
 17 13  2  0  0  0  0
 18 17  1  0  0  0  0
 18 19  2  0  0  0  0
 19 37  1  0  0  0  0
 20 19  1  0  0  0  0
 20 21  1  0  0  0  0
 22 20  2  0  0  0  0
 23 22  1  0  0  0  0
 24 25  2  0  0  0  0
 24 22  1  0  0  0  0
 25 18  1  0  0  0  0
 26 25  1  0  0  0  0
 28  3  1  0  0  0  0
 32  8  1  0  0  0  0
 33  9  1  0  0  0  0
 34 10  1  0  0  0  0
 36 16  1  0  0  0  0
 38 23  1  0  0  0  0
 39 24  1  0  0  0  0
 40 26  1  0  0  0  0
M  END
