-12.492
 OpenBabel10231816213D

 66 68  0  0  1  0  0  0  0  0999 V2000
    0.8785   -1.7490   -0.6514 C   0  0  2  0  0  0  0  0  0  0  0  0
    0.3487   -2.9012   -1.5320 C   0  0  0  0  0  0  0  0  0  0  0  0
   -1.0722   -3.2532   -1.1338 C   0  0  0  0  0  0  0  0  0  0  0  0
   -2.1583   -2.9822   -1.9767 C   0  0  0  0  0  0  0  0  0  0  0  0
   -3.4714   -3.1065   -1.5059 C   0  0  0  0  0  0  0  0  0  0  0  0
   -3.7057   -3.4884   -0.1899 C   0  0  0  0  0  0  0  0  0  0  0  0
   -2.6386   -3.8730    0.6174 C   0  0  0  0  0  0  0  0  0  0  0  0
   -1.3292   -3.7494    0.1478 C   0  0  0  0  0  0  0  0  0  0  0  0
   -4.9487   -3.5175    0.3674 O   0  0  0  0  0  0  0  0  0  0  0  0
   -5.6867   -2.2841    0.3317 C   0  0  0  0  0  0  0  0  0  0  0  0
   -5.1297   -1.1863    1.2506 C   0  0  0  0  0  0  0  0  0  0  0  0
   -3.9596   -0.4031    0.6384 C   0  0  0  0  0  0  0  0  0  0  0  0
   -3.4116    0.6413    1.5851 C   0  0  0  0  0  0  0  0  0  0  0  0
   -3.8805    0.8398    2.7177 O   0  0  0  0  0  0  0  0  0  0  0  0
   -2.3560    1.3996    1.1593 N   0  0  0  0  0  0  0  0  0  0  0  0
   -1.5235    1.1432   -0.0213 C   0  0  2  0  0  0  0  0  0  0  0  0
   -0.4936    0.0547    0.3177 C   0  0  0  0  0  0  0  0  0  0  0  0
   -0.1397   -0.2182    1.4730 O   0  0  0  0  0  0  0  0  0  0  0  0
    0.0406   -0.5658   -0.7786 N   0  0  0  0  0  0  0  0  0  0  0  0
   -0.8411    2.4384   -0.4430 C   0  0  0  0  0  0  0  0  0  0  0  0
   -0.3256    2.3873   -1.8665 C   0  0  0  0  0  0  0  0  0  0  0  0
   -0.5241    1.4643   -2.6441 O   0  0  0  0  0  0  0  0  0  0  0  0
    0.4147    3.4760   -2.2338 N   0  0  0  0  0  0  0  0  0  0  0  0
    2.3324   -1.4164   -0.9766 C   0  0  2  0  0  0  0  0  0  0  0  0
    3.0910   -2.6284   -0.9511 O   0  0  0  0  0  0  0  0  0  0  0  0
    2.9103   -0.4249    0.0476 C   0  0  0  0  0  0  0  0  0  0  0  0
    4.3371   -0.1965   -0.2477 N   0  0  0  0  0  0  0  0  0  0  0  0
    5.2693    0.5411    0.9443 S   0  0  0  0  0  0  0  0  0  0  0  0
    5.0561   -0.1734    2.1807 O   0  0  0  0  0  0  0  0  0  0  0  0
    6.5858    0.7023    0.3593 O   0  0  0  0  0  0  0  0  0  0  0  0
    4.5417    2.1554    1.1091 C   0  0  0  0  0  0  0  0  0  0  0  0
    4.7330    3.1138    0.1137 C   0  0  0  0  0  0  0  0  0  0  0  0
    4.1653    4.3814    0.2599 C   0  0  0  0  0  0  0  0  0  0  0  0
    3.4237    4.6922    1.4024 C   0  0  0  0  0  0  0  0  0  0  0  0
    3.2477    3.7354    2.4024 C   0  0  0  0  0  0  0  0  0  0  0  0
    3.8090    2.4651    2.2564 C   0  0  0  0  0  0  0  0  0  0  0  0
    0.8434   -2.0742    0.3952 H   0  0  0  0  0  0  0  0  0  0  0  0
    0.9937   -3.7839   -1.4242 H   0  0  0  0  0  0  0  0  0  0  0  0
    0.3872   -2.5989   -2.5866 H   0  0  0  0  0  0  0  0  0  0  0  0
   -1.9905   -2.6395   -2.9938 H   0  0  0  0  0  0  0  0  0  0  0  0
   -4.3052   -2.8806   -2.1604 H   0  0  0  0  0  0  0  0  0  0  0  0
   -2.8211   -4.2159    1.6326 H   0  0  0  0  0  0  0  0  0  0  0  0
   -0.4944   -3.9975    0.8009 H   0  0  0  0  0  0  0  0  0  0  0  0
   -6.6868   -2.5624    0.6971 H   0  0  0  0  0  0  0  0  0  0  0  0
   -5.8123   -1.9063   -0.6885 H   0  0  0  0  0  0  0  0  0  0  0  0
   -4.8266   -1.6241    2.2086 H   0  0  0  0  0  0  0  0  0  0  0  0
   -5.9323   -0.4676    1.4659 H   0  0  0  0  0  0  0  0  0  0  0  0
   -4.2847    0.0897   -0.2824 H   0  0  0  0  0  0  0  0  0  0  0  0
   -3.1328   -1.0687    0.3918 H   0  0  0  0  0  0  0  0  0  0  0  0
   -1.9059    1.8878    1.9267 H   0  0  0  0  0  0  0  0  0  0  0  0
   -2.1621    0.7766   -0.8286 H   0  0  0  0  0  0  0  0  0  0  0  0
   -0.1590   -0.1962   -1.7093 H   0  0  0  0  0  0  0  0  0  0  0  0
   -1.5842    3.2426   -0.4004 H   0  0  0  0  0  0  0  0  0  0  0  0
   -0.0308    2.6998    0.2444 H   0  0  0  0  0  0  0  0  0  0  0  0
    0.4780    4.3005   -1.6507 H   0  0  0  0  0  0  0  0  0  0  0  0
    0.7120    3.5537   -3.2017 H   0  0  0  0  0  0  0  0  0  0  0  0
    2.3956   -0.9847   -1.9845 H   0  0  0  0  0  0  0  0  0  0  0  0
    4.0239   -2.3604   -0.8544 H   0  0  0  0  0  0  0  0  0  0  0  0
    2.8180   -0.8529    1.0473 H   0  0  0  0  0  0  0  0  0  0  0  0
    2.3712    0.5231   -0.0029 H   0  0  0  0  0  0  0  0  0  0  0  0
    4.5389    0.2402   -1.1428 H   0  0  0  0  0  0  0  0  0  0  0  0
    5.3256    2.8792   -0.7650 H   0  0  0  0  0  0  0  0  0  0  0  0
    4.3104    5.1314   -0.5132 H   0  0  0  0  0  0  0  0  0  0  0  0
    2.9895    5.6834    1.5170 H   0  0  0  0  0  0  0  0  0  0  0  0
    2.6777    3.9749    3.2974 H   0  0  0  0  0  0  0  0  0  0  0  0
    3.6749    1.7172    3.0354 H   0  0  0  0  0  0  0  0  0  0  0  0
  1 37  1  1  0  0  0
  2 38  1  0  0  0  0
  2  3  1  0  0  0  0
  2  1  1  0  0  0  0
  3  8  2  0  0  0  0
  4  5  2  0  0  0  0
  4  3  1  0  0  0  0
  5  6  1  0  0  0  0
  6  9  1  0  0  0  0
  6  7  2  0  0  0  0
  7 42  1  0  0  0  0
  8  7  1  0  0  0  0
  8 43  1  0  0  0  0
 10  9  1  0  0  0  0
 10 44  1  0  0  0  0
 10 11  1  0  0  0  0
 11 47  1  0  0  0  0
 11 46  1  0  0  0  0
 12 11  1  0  0  0  0
 12 13  1  0  0  0  0
 13 14  2  0  0  0  0
 15 13  1  0  0  0  0
 15 50  1  0  0  0  0
 16 51  1  6  0  0  0
 16 17  1  0  0  0  0
 16 15  1  0  0  0  0
 17 18  2  0  0  0  0
 19  1  1  0  0  0  0
 19 17  1  0  0  0  0
 20 53  1  0  0  0  0
 20 16  1  0  0  0  0
 20 54  1  0  0  0  0
 21 20  1  0  0  0  0
 22 21  2  0  0  0  0
 23 21  1  0  0  0  0
 23 55  1  0  0  0  0
 24 57  1  6  0  0  0
 24 25  1  0  0  0  0
 24  1  1  0  0  0  0
 24 26  1  0  0  0  0
 25 58  1  0  0  0  0
 26 59  1  0  0  0  0
 27 26  1  0  0  0  0
 27 28  1  0  0  0  0
 28 31  1  0  0  0  0
 28 29  2  0  0  0  0
 30 28  2  0  0  0  0
 31 36  2  0  0  0  0
 32 33  2  0  0  0  0
 32 31  1  0  0  0  0
 33 34  1  0  0  0  0
 34 64  1  0  0  0  0
 34 35  2  0  0  0  0
 35 65  1  0  0  0  0
 36 35  1  0  0  0  0
 36 66  1  0  0  0  0
 39  2  1  0  0  0  0
 40  4  1  0  0  0  0
 41  5  1  0  0  0  0
 45 10  1  0  0  0  0
 48 12  1  0  0  0  0
 49 12  1  0  0  0  0
 52 19  1  0  0  0  0
 56 23  1  0  0  0  0
 60 26  1  0  0  0  0
 61 27  1  0  0  0  0
 62 32  1  0  0  0  0
 63 33  1  0  0  0  0
M  END
