-2.85627
 OpenBabel10231816213D

 66 68  0  0  1  0  0  0  0  0999 V2000
    0.6047   -0.3513    0.4647 C   0  0  2  0  0  0  0  0  0  0  0  0
    0.7063   -1.8581    0.8241 C   0  0  0  0  0  0  0  0  0  0  0  0
   -0.5515   -2.6463    0.5132 C   0  0  0  0  0  0  0  0  0  0  0  0
   -1.5451   -2.7930    1.4870 C   0  0  0  0  0  0  0  0  0  0  0  0
   -2.8175   -3.2411    1.1286 C   0  0  0  0  0  0  0  0  0  0  0  0
   -3.1161   -3.5273   -0.2021 C   0  0  0  0  0  0  0  0  0  0  0  0
   -2.1015   -3.5132   -1.1493 C   0  0  0  0  0  0  0  0  0  0  0  0
   -0.8283   -3.0600   -0.7955 C   0  0  0  0  0  0  0  0  0  0  0  0
   -4.4089   -3.8560   -0.4823 O   0  0  0  0  0  0  0  0  0  0  0  0
   -5.0130   -3.1437   -1.5661 C   0  0  0  0  0  0  0  0  0  0  0  0
   -5.5592   -1.7498   -1.2027 C   0  0  0  0  0  0  0  0  0  0  0  0
   -4.4990   -0.6641   -0.9175 C   0  0  0  0  0  0  0  0  0  0  0  0
   -4.3059   -0.4046    0.5635 C   0  0  0  0  0  0  0  0  0  0  0  0
   -4.9157   -1.0384    1.4452 O   0  0  0  0  0  0  0  0  0  0  0  0
   -3.4547    0.5739    0.9677 N   0  0  0  0  0  0  0  0  0  0  0  0
   -2.7108    1.5615    0.1925 C   0  0  2  0  0  0  0  0  0  0  0  0
   -1.1945    1.3720    0.3021 C   0  0  0  0  0  0  0  0  0  0  0  0
   -0.3962    2.3077    0.2397 O   0  0  0  0  0  0  0  0  0  0  0  0
   -0.7908    0.0783    0.3310 N   0  0  0  0  0  0  0  0  0  0  0  0
   -3.0660    2.9807    0.6235 C   0  0  0  0  0  0  0  0  0  0  0  0
   -2.8023    3.2297    2.0982 C   0  0  0  0  0  0  0  0  0  0  0  0
   -2.9090    2.3697    2.9694 O   0  0  0  0  0  0  0  0  0  0  0  0
   -2.5048    4.5213    2.4223 N   0  0  0  0  0  0  0  0  0  0  0  0
    1.4215    0.0110   -0.7913 C   0  0  2  0  0  0  0  0  0  0  0  0
    1.1045   -0.8803   -1.8655 O   0  0  0  0  0  0  0  0  0  0  0  0
    2.9346   -0.0305   -0.5186 C   0  0  0  0  0  0  0  0  0  0  0  0
    3.6588    0.2846   -1.7660 N   0  0  0  0  0  0  0  0  0  0  0  0
    5.3041   -0.0689   -1.8210 S   0  0  0  0  0  0  0  0  0  0  0  0
    5.7465    0.3696   -3.1333 O   0  0  0  0  0  0  0  0  0  0  0  0
    5.4799   -1.4211   -1.3660 O   0  0  0  0  0  0  0  0  0  0  0  0
    6.0109    1.0377   -0.6227 C   0  0  0  0  0  0  0  0  0  0  0  0
    6.6533    2.1952   -1.0626 C   0  0  0  0  0  0  0  0  0  0  0  0
    7.2283    3.0681   -0.1377 C   0  0  0  0  0  0  0  0  0  0  0  0
    7.1702    2.7754    1.2254 C   0  0  0  0  0  0  0  0  0  0  0  0
    6.5411    1.6079    1.6629 C   0  0  0  0  0  0  0  0  0  0  0  0
    5.9683    0.7303    0.7378 C   0  0  0  0  0  0  0  0  0  0  0  0
    1.0284    0.2537    1.2764 H   0  0  0  0  0  0  0  0  0  0  0  0
    0.9282   -1.9476    1.8957 H   0  0  0  0  0  0  0  0  0  0  0  0
    1.5502   -2.3187    0.3022 H   0  0  0  0  0  0  0  0  0  0  0  0
   -1.3478   -2.4907    2.5134 H   0  0  0  0  0  0  0  0  0  0  0  0
   -3.6037   -3.3019    1.8801 H   0  0  0  0  0  0  0  0  0  0  0  0
   -2.2935   -3.8444   -2.1624 H   0  0  0  0  0  0  0  0  0  0  0  0
   -0.0566   -2.9876   -1.5580 H   0  0  0  0  0  0  0  0  0  0  0  0
   -4.3608   -3.0664   -2.4429 H   0  0  0  0  0  0  0  0  0  0  0  0
   -5.8688   -3.7672   -1.8678 H   0  0  0  0  0  0  0  0  0  0  0  0
   -6.1570   -1.4231   -2.0642 H   0  0  0  0  0  0  0  0  0  0  0  0
   -6.2495   -1.8364   -0.3555 H   0  0  0  0  0  0  0  0  0  0  0  0
   -3.5431   -0.9075   -1.3858 H   0  0  0  0  0  0  0  0  0  0  0  0
   -4.8443    0.2811   -1.3577 H   0  0  0  0  0  0  0  0  0  0  0  0
   -3.4529    0.7391    1.9764 H   0  0  0  0  0  0  0  0  0  0  0  0
   -2.9661    1.4402   -0.8642 H   0  0  0  0  0  0  0  0  0  0  0  0
   -1.5246   -0.6170    0.4021 H   0  0  0  0  0  0  0  0  0  0  0  0
   -4.1314    3.1536    0.4438 H   0  0  0  0  0  0  0  0  0  0  0  0
   -2.4931    3.6968    0.0259 H   0  0  0  0  0  0  0  0  0  0  0  0
   -2.3053    5.2228    1.7223 H   0  0  0  0  0  0  0  0  0  0  0  0
   -2.2876    4.7369    3.3892 H   0  0  0  0  0  0  0  0  0  0  0  0
    1.1569    1.0222   -1.1176 H   0  0  0  0  0  0  0  0  0  0  0  0
    1.8305   -0.7895   -2.5120 H   0  0  0  0  0  0  0  0  0  0  0  0
    3.2246   -1.0309   -0.1939 H   0  0  0  0  0  0  0  0  0  0  0  0
    3.1916    0.6965    0.2536 H   0  0  0  0  0  0  0  0  0  0  0  0
    3.4989    1.2166   -2.1404 H   0  0  0  0  0  0  0  0  0  0  0  0
    6.7070    2.4158   -2.1267 H   0  0  0  0  0  0  0  0  0  0  0  0
    7.7221    3.9732   -0.4838 H   0  0  0  0  0  0  0  0  0  0  0  0
    7.6189    3.4553    1.9478 H   0  0  0  0  0  0  0  0  0  0  0  0
    6.5006    1.3776    2.7253 H   0  0  0  0  0  0  0  0  0  0  0  0
    5.4858   -0.1792    1.0800 H   0  0  0  0  0  0  0  0  0  0  0  0
  1  2  1  0  0  0  0
  1 37  1  1  0  0  0
  2 38  1  0  0  0  0
  3  2  1  0  0  0  0
  3  4  2  0  0  0  0
  4 40  1  0  0  0  0
  5  4  1  0  0  0  0
  5 41  1  0  0  0  0
  6  5  2  0  0  0  0
  7  8  2  0  0  0  0
  7  6  1  0  0  0  0
  8  3  1  0  0  0  0
  9  6  1  0  0  0  0
 10 11  1  0  0  0  0
 10  9  1  0  0  0  0
 11 12  1  0  0  0  0
 11 47  1  0  0  0  0
 12 13  1  0  0  0  0
 13 15  1  0  0  0  0
 13 14  2  0  0  0  0
 15 50  1  0  0  0  0
 16 51  1  6  0  0  0
 16 17  1  0  0  0  0
 16 20  1  0  0  0  0
 16 15  1  0  0  0  0
 17 19  1  0  0  0  0
 18 17  2  0  0  0  0
 19 52  1  0  0  0  0
 19  1  1  0  0  0  0
 20 21  1  0  0  0  0
 21 23  1  0  0  0  0
 21 22  2  0  0  0  0
 23 56  1  0  0  0  0
 24 57  1  6  0  0  0
 24 26  1  0  0  0  0
 24  1  1  0  0  0  0
 25 24  1  0  0  0  0
 26 59  1  0  0  0  0
 26 60  1  0  0  0  0
 27 26  1  0  0  0  0
 28 27  1  0  0  0  0
 28 30  2  0  0  0  0
 28 31  1  0  0  0  0
 29 28  2  0  0  0  0
 31 36  1  0  0  0  0
 32 31  2  0  0  0  0
 32 33  1  0  0  0  0
 33 34  2  0  0  0  0
 34 35  1  0  0  0  0
 34 64  1  0  0  0  0
 35 65  1  0  0  0  0
 36 66  1  0  0  0  0
 36 35  2  0  0  0  0
 39  2  1  0  0  0  0
 42  7  1  0  0  0  0
 43  8  1  0  0  0  0
 44 10  1  0  0  0  0
 45 10  1  0  0  0  0
 46 11  1  0  0  0  0
 48 12  1  0  0  0  0
 49 12  1  0  0  0  0
 53 20  1  0  0  0  0
 54 20  1  0  0  0  0
 55 23  1  0  0  0  0
 58 25  1  0  0  0  0
 61 27  1  0  0  0  0
 62 32  1  0  0  0  0
 63 33  1  0  0  0  0
M  END
