77.8153
 OpenBabel10231816213D

 50 52  0  0  1  0  0  0  0  0999 V2000
    6.8207    1.3172   -0.1267 O   0  0  0  0  0  0  0  0  0  0  0  0
    6.1319    0.2493   -0.5711 C   0  0  0  0  0  0  0  0  0  0  0  0
    6.5115   -0.4128   -1.5306 O   0  0  0  0  0  0  0  0  0  0  0  0
    4.8972   -0.0747    0.2614 C   0  0  1  0  0  0  0  0  0  0  0  0
    4.0445    1.1835    0.5014 C   0  0  0  0  0  0  0  0  0  0  0  0
    2.5624    0.8375    0.6559 C   0  0  0  0  0  0  0  0  0  0  0  0
    1.9758    0.2742   -0.6731 C   0  0  2  0  0  0  0  0  0  0  0  0
    3.0620   -0.5638   -1.4007 C   0  0  0  0  0  0  0  0  0  0  0  0
    4.0635   -1.1812   -0.4183 C   0  0  0  0  0  0  0  0  0  0  0  0
    1.6457    1.4170   -1.5721 C   0  0  0  0  0  0  0  0  0  0  0  0
    1.3800    2.3365   -2.2399 N   0  0  0  0  0  0  0  0  0  0  0  0
    0.6921   -0.5029   -0.3393 C   0  0  0  0  0  0  0  0  0  0  0  0
    0.6047   -1.9058   -0.3749 C   0  0  0  0  0  0  0  0  0  0  0  0
   -0.5896   -2.5656   -0.0564 C   0  0  0  0  0  0  0  0  0  0  0  0
   -1.7196   -1.8380    0.3178 C   0  0  0  0  0  0  0  0  0  0  0  0
   -2.9264   -2.3670    0.6721 O   0  0  0  0  0  0  0  0  0  0  0  0
   -3.0579   -3.7746    0.6276 C   0  0  0  0  0  0  0  0  0  0  0  0
   -1.6448   -0.4461    0.3544 C   0  0  0  0  0  0  0  0  0  0  0  0
   -0.4576    0.2115    0.0473 C   0  0  0  0  0  0  0  0  0  0  0  0
   -2.6815    0.3181    0.8156 O   0  0  0  0  0  0  0  0  0  0  0  0
   -3.7521    0.4570   -0.1335 C   0  0  0  0  0  0  0  0  0  0  0  0
   -5.0499    0.6034    0.6576 C   0  0  0  0  0  0  0  0  0  0  0  0
   -4.9451    2.0091    1.2530 C   0  0  0  0  0  0  0  0  0  0  0  0
   -4.1053    2.8173    0.2544 C   0  0  0  0  0  0  0  0  0  0  0  0
   -3.6389    1.8200   -0.8120 C   0  0  0  0  0  0  0  0  0  0  0  0
    6.4233    1.7611    0.6362 H   0  0  0  0  0  0  0  0  0  0  0  0
    5.2668   -0.4687    1.2176 H   0  0  0  0  0  0  0  0  0  0  0  0
    4.4040    1.7046    1.3959 H   0  0  0  0  0  0  0  0  0  0  0  0
    4.1652    1.8865   -0.3330 H   0  0  0  0  0  0  0  0  0  0  0  0
    2.4657    0.0998    1.4675 H   0  0  0  0  0  0  0  0  0  0  0  0
    2.0122    1.7281    0.9844 H   0  0  0  0  0  0  0  0  0  0  0  0
    2.6168   -1.3248   -2.0489 H   0  0  0  0  0  0  0  0  0  0  0  0
    3.6325    0.0857   -2.0810 H   0  0  0  0  0  0  0  0  0  0  0  0
    4.7067   -1.8982   -0.9392 H   0  0  0  0  0  0  0  0  0  0  0  0
    3.5297   -1.7562    0.3491 H   0  0  0  0  0  0  0  0  0  0  0  0
    1.4571   -2.5230   -0.6515 H   0  0  0  0  0  0  0  0  0  0  0  0
   -0.6023   -3.6501   -0.1055 H   0  0  0  0  0  0  0  0  0  0  0  0
   -2.3792   -4.2554    1.3387 H   0  0  0  0  0  0  0  0  0  0  0  0
   -4.0846   -4.0020    0.9243 H   0  0  0  0  0  0  0  0  0  0  0  0
   -2.9014   -4.1567   -0.3862 H   0  0  0  0  0  0  0  0  0  0  0  0
   -0.4437    1.2983    0.1007 H   0  0  0  0  0  0  0  0  0  0  0  0
   -3.8074   -0.3665   -0.8564 H   0  0  0  0  0  0  0  0  0  0  0  0
   -5.1521   -0.1629    1.4328 H   0  0  0  0  0  0  0  0  0  0  0  0
   -5.9223    0.5424   -0.0050 H   0  0  0  0  0  0  0  0  0  0  0  0
   -4.4319    1.9700    2.2225 H   0  0  0  0  0  0  0  0  0  0  0  0
   -5.9281    2.4562    1.4318 H   0  0  0  0  0  0  0  0  0  0  0  0
   -4.6778    3.6374   -0.1925 H   0  0  0  0  0  0  0  0  0  0  0  0
   -3.2456    3.2710    0.7625 H   0  0  0  0  0  0  0  0  0  0  0  0
   -2.6218    2.0351   -1.1527 H   0  0  0  0  0  0  0  0  0  0  0  0
   -4.3050    1.8690   -1.6820 H   0  0  0  0  0  0  0  0  0  0  0  0
  1 26  1  0  0  0  0
  2  1  1  0  0  0  0
  2  4  1  0  0  0  0
  3  2  2  0  0  0  0
  4  5  1  0  0  0  0
  4 27  1  1  0  0  0
  5  6  1  0  0  0  0
  5 28  1  0  0  0  0
  6 31  1  0  0  0  0
  6 30  1  0  0  0  0
  7 10  1  6  0  0  0
  7 12  1  0  0  0  0
  7  6  1  0  0  0  0
  8  7  1  0  0  0  0
  8  9  1  0  0  0  0
  9  4  1  0  0  0  0
  9 35  1  0  0  0  0
 11 10  3  0  0  0  0
 12 19  1  0  0  0  0
 13 12  2  0  0  0  0
 13 14  1  0  0  0  0
 14 15  2  0  0  0  0
 15 18  1  0  0  0  0
 15 16  1  0  0  0  0
 17 16  1  0  0  0  0
 17 39  1  0  0  0  0
 17 38  1  0  0  0  0
 18 20  1  0  0  0  0
 19 41  1  0  0  0  0
 19 18  2  0  0  0  0
 21 22  1  0  0  0  0
 21 20  1  0  0  0  0
 22 23  1  0  0  0  0
 22 43  1  0  0  0  0
 23 46  1  0  0  0  0
 23 45  1  0  0  0  0
 24 48  1  0  0  0  0
 24 23  1  0  0  0  0
 25 21  1  0  0  0  0
 25 24  1  0  0  0  0
 29  5  1  0  0  0  0
 32  8  1  0  0  0  0
 33  8  1  0  0  0  0
 34  9  1  0  0  0  0
 36 13  1  0  0  0  0
 37 14  1  0  0  0  0
 40 17  1  0  0  0  0
 42 21  1  0  0  0  0
 44 22  1  0  0  0  0
 47 24  1  0  0  0  0
 49 25  1  0  0  0  0
 50 25  1  0  0  0  0
M  END
