74.239
 OpenBabel10231816213D

 50 52  0  0  1  0  0  0  0  0999 V2000
    5.9180    2.8782   -0.1321 O   0  0  0  0  0  0  0  0  0  0  0  0
    5.8158    1.5657   -0.4462 C   0  0  0  0  0  0  0  0  0  0  0  0
    6.7931    0.8748   -0.6744 O   0  0  0  0  0  0  0  0  0  0  0  0
    4.3801    1.0731   -0.4789 C   0  0  1  0  0  0  0  0  0  0  0  0
    4.2606   -0.2444   -1.2605 C   0  0  0  0  0  0  0  0  0  0  0  0
    2.8163   -0.7636   -1.2606 C   0  0  0  0  0  0  0  0  0  0  0  0
    2.2429   -0.9379    0.1734 C   0  0  2  0  0  0  0  0  0  0  0  0
    2.4113    0.4010    0.9465 C   0  0  0  0  0  0  0  0  0  0  0  0
    3.8627    0.8912    0.9497 C   0  0  0  0  0  0  0  0  0  0  0  0
    3.0543   -1.9756    0.8735 C   0  0  0  0  0  0  0  0  0  0  0  0
    3.6889   -2.7693    1.4268 N   0  0  0  0  0  0  0  0  0  0  0  0
    0.7551   -1.3251    0.1128 C   0  0  0  0  0  0  0  0  0  0  0  0
    0.2763   -2.5412    0.6367 C   0  0  0  0  0  0  0  0  0  0  0  0
   -1.0813   -2.8817    0.5733 C   0  0  0  0  0  0  0  0  0  0  0  0
   -1.9950   -2.0149   -0.0200 C   0  0  0  0  0  0  0  0  0  0  0  0
   -3.3368   -2.2439   -0.1390 O   0  0  0  0  0  0  0  0  0  0  0  0
   -3.8399   -3.4581    0.3873 C   0  0  0  0  0  0  0  0  0  0  0  0
   -1.5373   -0.7990   -0.5348 C   0  0  0  0  0  0  0  0  0  0  0  0
   -0.1828   -0.4615   -0.4827 C   0  0  0  0  0  0  0  0  0  0  0  0
   -2.4161    0.0232   -1.1934 O   0  0  0  0  0  0  0  0  0  0  0  0
   -2.7909    1.1656   -0.4253 C   0  0  0  0  0  0  0  0  0  0  0  0
   -3.6785    2.0661   -1.2935 C   0  0  0  0  0  0  0  0  0  0  0  0
   -4.6778    2.7351   -0.3462 C   0  0  0  0  0  0  0  0  0  0  0  0
   -4.3652    2.1901    1.0430 C   0  0  0  0  0  0  0  0  0  0  0  0
   -3.6923    0.8559    0.7689 C   0  0  0  0  0  0  0  0  0  0  0  0
    5.0667    3.3318    0.0139 H   0  0  0  0  0  0  0  0  0  0  0  0
    3.7775    1.8274   -1.0037 H   0  0  0  0  0  0  0  0  0  0  0  0
    4.6001   -0.1057   -2.2944 H   0  0  0  0  0  0  0  0  0  0  0  0
    4.9272   -1.0013   -0.8262 H   0  0  0  0  0  0  0  0  0  0  0  0
    2.2077   -0.0500   -1.8310 H   0  0  0  0  0  0  0  0  0  0  0  0
    2.7671   -1.7136   -1.8086 H   0  0  0  0  0  0  0  0  0  0  0  0
    1.7938    1.1886    0.4940 H   0  0  0  0  0  0  0  0  0  0  0  0
    2.0595    0.2938    1.9810 H   0  0  0  0  0  0  0  0  0  0  0  0
    3.9343    1.8284    1.5098 H   0  0  0  0  0  0  0  0  0  0  0  0
    4.4991    0.1741    1.4841 H   0  0  0  0  0  0  0  0  0  0  0  0
    0.9371   -3.2687    1.1079 H   0  0  0  0  0  0  0  0  0  0  0  0
   -1.3817   -3.8348    0.9929 H   0  0  0  0  0  0  0  0  0  0  0  0
   -4.9194   -3.4655    0.2065 H   0  0  0  0  0  0  0  0  0  0  0  0
   -3.6788   -3.5205    1.4686 H   0  0  0  0  0  0  0  0  0  0  0  0
   -3.4038   -4.3189   -0.1290 H   0  0  0  0  0  0  0  0  0  0  0  0
    0.1269    0.4810   -0.9269 H   0  0  0  0  0  0  0  0  0  0  0  0
   -1.9046    1.7317   -0.1081 H   0  0  0  0  0  0  0  0  0  0  0  0
   -3.0775    2.8041   -1.8355 H   0  0  0  0  0  0  0  0  0  0  0  0
   -4.2084    1.4782   -2.0534 H   0  0  0  0  0  0  0  0  0  0  0  0
   -5.7012    2.4713   -0.6398 H   0  0  0  0  0  0  0  0  0  0  0  0
   -4.6069    3.8272   -0.3741 H   0  0  0  0  0  0  0  0  0  0  0  0
   -5.2597    2.0893    1.6650 H   0  0  0  0  0  0  0  0  0  0  0  0
   -3.6721    2.8642    1.5603 H   0  0  0  0  0  0  0  0  0  0  0  0
   -3.1269    0.4897    1.6314 H   0  0  0  0  0  0  0  0  0  0  0  0
   -4.4375    0.0943    0.5114 H   0  0  0  0  0  0  0  0  0  0  0  0
  1 26  1  0  0  0  0
  2  1  1  0  0  0  0
  3  2  2  0  0  0  0
  4 27  1  6  0  0  0
  4  2  1  0  0  0  0
  4  9  1  0  0  0  0
  5 29  1  0  0  0  0
  5  4  1  0  0  0  0
  6  5  1  0  0  0  0
  6  7  1  0  0  0  0
  7 12  1  6  0  0  0
  7 10  1  0  0  0  0
  7  8  1  0  0  0  0
  8  9  1  0  0  0  0
  8 33  1  0  0  0  0
  9 35  1  0  0  0  0
  9 34  1  0  0  0  0
 10 11  3  0  0  0  0
 12 13  2  0  0  0  0
 13 36  1  0  0  0  0
 14 13  1  0  0  0  0
 14 37  1  0  0  0  0
 15 14  2  0  0  0  0
 16 15  1  0  0  0  0
 16 17  1  0  0  0  0
 17 39  1  0  0  0  0
 18 19  2  0  0  0  0
 18 15  1  0  0  0  0
 19 12  1  0  0  0  0
 20 18  1  0  0  0  0
 20 21  1  0  0  0  0
 21 42  1  0  0  0  0
 21 25  1  0  0  0  0
 22 21  1  0  0  0  0
 22 23  1  0  0  0  0
 23 24  1  0  0  0  0
 24 48  1  0  0  0  0
 24 47  1  0  0  0  0
 25 24  1  0  0  0  0
 25 49  1  0  0  0  0
 28  5  1  0  0  0  0
 30  6  1  0  0  0  0
 31  6  1  0  0  0  0
 32  8  1  0  0  0  0
 38 17  1  0  0  0  0
 40 17  1  0  0  0  0
 41 19  1  0  0  0  0
 43 22  1  0  0  0  0
 44 22  1  0  0  0  0
 45 23  1  0  0  0  0
 46 23  1  0  0  0  0
 50 25  1  0  0  0  0
M  END
