-43.186
 OpenBabel10231816213D

 24 23  0  0  1  0  0  0  0  0999 V2000
   -0.4243   -0.8618   -0.3713 C   0  0  2  0  0  0  0  0  0  0  0  0
   -0.6420   -1.4034    1.0358 C   0  0  0  0  0  0  0  0  0  0  0  0
   -0.9097   -0.7266    2.0199 O   0  0  0  0  0  0  0  0  0  0  0  0
   -0.4339   -2.7283    1.1351 O   0  0  0  0  0  0  0  0  0  0  0  0
    1.0674   -0.6884   -0.7036 C   0  0  0  0  0  0  0  0  0  0  0  0
    1.8263    0.2804    0.2132 C   0  0  0  0  0  0  0  0  0  0  0  0
    2.2018   -0.3280    1.5404 C   0  0  0  0  0  0  0  0  0  0  0  0
    2.2416   -1.5140    1.8219 O   0  0  0  0  0  0  0  0  0  0  0  0
    2.5253    0.6050    2.4528 O   0  0  0  0  0  0  0  0  0  0  0  0
   -1.1657    0.3939   -0.4957 N   0  0  0  0  0  0  0  0  0  0  0  0
   -1.5912    0.8650   -1.7130 C   0  0  0  0  0  0  0  0  0  0  0  0
   -1.3558    0.2994   -2.7754 O   0  0  0  0  0  0  0  0  0  0  0  0
   -2.3673    2.1473   -1.6324 C   0  0  0  0  0  0  0  0  0  0  0  0
   -0.8747   -1.5726   -1.0752 H   0  0  0  0  0  0  0  0  0  0  0  0
   -0.4204   -2.9068    2.0988 H   0  0  0  0  0  0  0  0  0  0  0  0
    1.5582   -1.6694   -0.6939 H   0  0  0  0  0  0  0  0  0  0  0  0
    1.1528   -0.3096   -1.7299 H   0  0  0  0  0  0  0  0  0  0  0  0
    2.7622    0.5754   -0.2735 H   0  0  0  0  0  0  0  0  0  0  0  0
    1.2344    1.1852    0.3875 H   0  0  0  0  0  0  0  0  0  0  0  0
    2.7181    0.0904    3.2648 H   0  0  0  0  0  0  0  0  0  0  0  0
   -1.4230    0.8775    0.3581 H   0  0  0  0  0  0  0  0  0  0  0  0
   -2.6911    2.4379   -2.6369 H   0  0  0  0  0  0  0  0  0  0  0  0
   -1.7362    2.9401   -1.2223 H   0  0  0  0  0  0  0  0  0  0  0  0
   -3.2527    2.0116   -1.0052 H   0  0  0  0  0  0  0  0  0  0  0  0
  1 14  1  6  0  0  0
  1  2  1  0  0  0  0
  2  4  1  0  0  0  0
  2  3  2  0  0  0  0
  4 15  1  0  0  0  0
  5 16  1  0  0  0  0
  5  1  1  0  0  0  0
  5  6  1  0  0  0  0
  6 19  1  0  0  0  0
  6  7  1  0  0  0  0
  7  8  2  0  0  0  0
  7  9  1  0  0  0  0
  9 20  1  0  0  0  0
 10  1  1  0  0  0  0
 10 21  1  0  0  0  0
 11 13  1  0  0  0  0
 11 10  1  0  0  0  0
 12 11  2  0  0  0  0
 13 23  1  0  0  0  0
 13 24  1  0  0  0  0
 17  5  1  0  0  0  0
 18  6  1  0  0  0  0
 22 13  1  0  0  0  0
M  END
