64.8877
 OpenBabel10231816213D

 50 52  0  0  1  0  0  0  0  0999 V2000
    6.2227    2.5484   -0.8152 O   0  0  0  0  0  0  0  0  0  0  0  0
    6.0520    1.2689   -0.4222 C   0  0  0  0  0  0  0  0  0  0  0  0
    6.9699    0.6281    0.0504 O   0  0  0  0  0  0  0  0  0  0  0  0
    4.6292    0.8072   -0.6386 C   0  0  1  0  0  0  0  0  0  0  0  0
    4.5276   -0.7215   -0.6012 C   0  0  0  0  0  0  0  0  0  0  0  0
    3.0699   -1.1821   -0.7644 C   0  0  0  0  0  0  0  0  0  0  0  0
    2.1193   -0.5610    0.2962 C   0  0  2  0  0  0  0  0  0  0  0  0
    2.2703    0.9743    0.2154 C   0  0  0  0  0  0  0  0  0  0  0  0
    3.7139    1.4300    0.4137 C   0  0  0  0  0  0  0  0  0  0  0  0
    2.5263   -1.0008    1.6464 C   0  0  0  0  0  0  0  0  0  0  0  0
    2.8854   -1.3679    2.6993 N   0  0  0  0  0  0  0  0  0  0  0  0
    0.6832   -1.0287    0.0453 C   0  0  0  0  0  0  0  0  0  0  0  0
    0.3645   -2.3868    0.2333 C   0  0  0  0  0  0  0  0  0  0  0  0
   -0.9259   -2.8662    0.0047 C   0  0  0  0  0  0  0  0  0  0  0  0
   -1.9336   -1.9936   -0.4065 C   0  0  0  0  0  0  0  0  0  0  0  0
   -3.2171   -2.3525   -0.6912 O   0  0  0  0  0  0  0  0  0  0  0  0
   -3.5668   -3.7111   -0.5148 C   0  0  0  0  0  0  0  0  0  0  0  0
   -1.6426   -0.6358   -0.5540 C   0  0  0  0  0  0  0  0  0  0  0  0
   -0.3472   -0.1607   -0.3501 C   0  0  0  0  0  0  0  0  0  0  0  0
   -2.5740    0.2614   -1.0170 O   0  0  0  0  0  0  0  0  0  0  0  0
   -3.5498    0.6313   -0.0334 C   0  0  0  0  0  0  0  0  0  0  0  0
   -4.6784    1.3874   -0.7382 C   0  0  0  0  0  0  0  0  0  0  0  0
   -5.3251    2.2029    0.3719 C   0  0  0  0  0  0  0  0  0  0  0  0
   -4.1480    2.6644    1.2290 C   0  0  0  0  0  0  0  0  0  0  0  0
   -3.0141    1.6589    0.9740 C   0  0  0  0  0  0  0  0  0  0  0  0
    7.1560    2.7622   -0.6071 H   0  0  0  0  0  0  0  0  0  0  0  0
    4.3222    1.1505   -1.6351 H   0  0  0  0  0  0  0  0  0  0  0  0
    4.9320   -1.0959    0.3493 H   0  0  0  0  0  0  0  0  0  0  0  0
    5.1513   -1.1660   -1.3884 H   0  0  0  0  0  0  0  0  0  0  0  0
    2.7276   -0.8848   -1.7706 H   0  0  0  0  0  0  0  0  0  0  0  0
    3.0372   -2.2793   -0.7419 H   0  0  0  0  0  0  0  0  0  0  0  0
    1.9347    1.3209   -0.7740 H   0  0  0  0  0  0  0  0  0  0  0  0
    1.6291    1.4597    0.9626 H   0  0  0  0  0  0  0  0  0  0  0  0
    3.7648    2.5224    0.3622 H   0  0  0  0  0  0  0  0  0  0  0  0
    4.0530    1.1528    1.4193 H   0  0  0  0  0  0  0  0  0  0  0  0
    1.1299   -3.0868    0.5689 H   0  0  0  0  0  0  0  0  0  0  0  0
   -1.1101   -3.9256    0.1511 H   0  0  0  0  0  0  0  0  0  0  0  0
   -4.6257   -3.7902   -0.7683 H   0  0  0  0  0  0  0  0  0  0  0  0
   -3.4341   -4.0248    0.5256 H   0  0  0  0  0  0  0  0  0  0  0  0
   -2.9971   -4.3578   -1.1888 H   0  0  0  0  0  0  0  0  0  0  0  0
   -0.1721    0.9004   -0.4995 H   0  0  0  0  0  0  0  0  0  0  0  0
   -3.9672   -0.2360    0.4942 H   0  0  0  0  0  0  0  0  0  0  0  0
   -5.3839    0.7103   -1.2346 H   0  0  0  0  0  0  0  0  0  0  0  0
   -4.2614    2.0401   -1.5151 H   0  0  0  0  0  0  0  0  0  0  0  0
   -5.9932    1.5664    0.9637 H   0  0  0  0  0  0  0  0  0  0  0  0
   -5.9279    3.0373   -0.0074 H   0  0  0  0  0  0  0  0  0  0  0  0
   -3.8261    3.6721    0.9341 H   0  0  0  0  0  0  0  0  0  0  0  0
   -4.4224    2.7265    2.2888 H   0  0  0  0  0  0  0  0  0  0  0  0
   -2.6983    1.1601    1.8990 H   0  0  0  0  0  0  0  0  0  0  0  0
   -2.1295    2.1710    0.5795 H   0  0  0  0  0  0  0  0  0  0  0  0
  1 26  1  0  0  0  0
  1  2  1  0  0  0  0
  2  3  2  0  0  0  0
  4 27  1  6  0  0  0
  4  5  1  0  0  0  0
  4  2  1  0  0  0  0
  4  9  1  0  0  0  0
  5 28  1  0  0  0  0
  6 31  1  0  0  0  0
  6  5  1  0  0  0  0
  6  7  1  0  0  0  0
  7 12  1  6  0  0  0
  7 10  1  0  0  0  0
  8  7  1  0  0  0  0
  8  9  1  0  0  0  0
  8 33  1  0  0  0  0
  9 35  1  0  0  0  0
 10 11  3  0  0  0  0
 12 13  1  0  0  0  0
 13 36  1  0  0  0  0
 14 37  1  0  0  0  0
 14 13  2  0  0  0  0
 15 14  1  0  0  0  0
 16 17  1  0  0  0  0
 16 15  1  0  0  0  0
 17 39  1  0  0  0  0
 18 15  2  0  0  0  0
 18 19  1  0  0  0  0
 19 12  2  0  0  0  0
 20 18  1  0  0  0  0
 20 21  1  0  0  0  0
 21 42  1  0  0  0  0
 21 25  1  0  0  0  0
 22 21  1  0  0  0  0
 22 23  1  0  0  0  0
 23 45  1  0  0  0  0
 23 24  1  0  0  0  0
 24 48  1  0  0  0  0
 25 24  1  0  0  0  0
 25 49  1  0  0  0  0
 29  5  1  0  0  0  0
 30  6  1  0  0  0  0
 32  8  1  0  0  0  0
 34  9  1  0  0  0  0
 38 17  1  0  0  0  0
 40 17  1  0  0  0  0
 41 19  1  0  0  0  0
 43 22  1  0  0  0  0
 44 22  1  0  0  0  0
 46 23  1  0  0  0  0
 47 24  1  0  0  0  0
 50 25  1  0  0  0  0
M  END
