-34.9283
 OpenBabel10231816213D

 24 23  0  0  1  0  0  0  0  0999 V2000
   -0.4141   -0.4396   -0.2747 C   0  0  2  0  0  0  0  0  0  0  0  0
   -0.9251   -1.6955    0.4253 C   0  0  0  0  0  0  0  0  0  0  0  0
   -1.9380   -1.7842    1.1028 O   0  0  0  0  0  0  0  0  0  0  0  0
   -0.1270   -2.7683    0.2475 O   0  0  0  0  0  0  0  0  0  0  0  0
    0.7414    0.2189    0.4878 C   0  0  0  0  0  0  0  0  0  0  0  0
    1.9860   -0.6684    0.6048 C   0  0  0  0  0  0  0  0  0  0  0  0
    3.1641    0.0873    1.1739 C   0  0  0  0  0  0  0  0  0  0  0  0
    3.1592    1.2637    1.4928 O   0  0  0  0  0  0  0  0  0  0  0  0
    4.2580   -0.6958    1.3200 O   0  0  0  0  0  0  0  0  0  0  0  0
   -1.5513    0.4767   -0.3955 N   0  0  0  0  0  0  0  0  0  0  0  0
   -1.6461    1.3843   -1.4195 C   0  0  0  0  0  0  0  0  0  0  0  0
   -0.7881    1.5089   -2.2880 O   0  0  0  0  0  0  0  0  0  0  0  0
   -2.9032    2.2088   -1.3989 C   0  0  0  0  0  0  0  0  0  0  0  0
   -0.1006   -0.7143   -1.2889 H   0  0  0  0  0  0  0  0  0  0  0  0
   -0.5783   -3.4882    0.7401 H   0  0  0  0  0  0  0  0  0  0  0  0
    1.0149    1.1530   -0.0202 H   0  0  0  0  0  0  0  0  0  0  0  0
    0.4124    0.5086    1.4949 H   0  0  0  0  0  0  0  0  0  0  0  0
    2.2681   -1.0533   -0.3812 H   0  0  0  0  0  0  0  0  0  0  0  0
    1.7861   -1.5070    1.2797 H   0  0  0  0  0  0  0  0  0  0  0  0
    4.1286   -1.6204    1.0362 H   0  0  0  0  0  0  0  0  0  0  0  0
   -2.3139    0.3784    0.2689 H   0  0  0  0  0  0  0  0  0  0  0  0
   -2.9548    2.7937   -0.4776 H   0  0  0  0  0  0  0  0  0  0  0  0
   -2.9000    2.8952   -2.2515 H   0  0  0  0  0  0  0  0  0  0  0  0
   -3.7783    1.5576   -1.4785 H   0  0  0  0  0  0  0  0  0  0  0  0
  1 14  1  6  0  0  0
  1  2  1  0  0  0  0
  1  5  1  0  0  0  0
  2  3  2  0  0  0  0
  4  2  1  0  0  0  0
  4 15  1  0  0  0  0
  5  6  1  0  0  0  0
  5 17  1  0  0  0  0
  6  7  1  0  0  0  0
  6 19  1  0  0  0  0
  7  9  1  0  0  0  0
  7  8  2  0  0  0  0
 10  1  1  0  0  0  0
 10 21  1  0  0  0  0
 11 13  1  0  0  0  0
 11 10  1  0  0  0  0
 12 11  2  0  0  0  0
 13 22  1  0  0  0  0
 16  5  1  0  0  0  0
 18  6  1  0  0  0  0
 20  9  1  0  0  0  0
 23 13  1  0  0  0  0
 24 13  1  0  0  0  0
M  END
