30.649
 OpenBabel10231816213D

 61 65  0  0  0  0  0  0  0  0999 V2000
    7.8974    2.8433    0.5009 N   0  0  0  0  0  0  0  0  0  0  0  0
    7.3803    2.1181    1.5120 C   0  0  0  0  0  0  0  0  0  0  0  0
    6.4302    1.1199    1.3465 C   0  0  0  0  0  0  0  0  0  0  0  0
    5.9317    0.8347    0.0700 C   0  0  0  0  0  0  0  0  0  0  0  0
    6.4777    1.5736   -0.9877 C   0  0  0  0  0  0  0  0  0  0  0  0
    7.4343    2.5474   -0.7304 C   0  0  0  0  0  0  0  0  0  0  0  0
    4.9828   -0.1923   -0.1112 N   0  0  0  0  0  0  0  0  0  0  0  0
    4.7086   -0.5942   -1.4921 C   0  0  0  0  0  0  0  0  0  0  0  0
    3.9534   -1.9237   -1.5276 C   0  0  0  0  0  0  0  0  0  0  0  0
    2.7043   -1.9527   -0.6321 C   0  0  0  0  0  0  0  0  0  0  0  0
    3.0896   -1.4730    0.7725 C   0  0  0  0  0  0  0  0  0  0  0  0
    3.7769   -0.1039    0.7238 C   0  0  0  0  0  0  0  0  0  0  0  0
    1.5712   -1.1231   -1.2106 C   0  0  0  0  0  0  0  0  0  0  0  0
    1.8036   -0.2515   -2.0789 O   0  0  0  0  0  0  0  0  0  0  0  0
    0.2936   -1.3177   -0.7500 N   0  0  0  0  0  0  0  0  0  0  0  0
   -0.7785   -0.4356   -1.2104 C   0  0  0  0  0  0  0  0  0  0  0  0
   -1.3945    0.3292   -0.0362 C   0  0  0  0  0  0  0  0  0  0  0  0
   -1.8455   -0.6431    0.9908 N   0  0  0  0  0  0  0  0  0  0  0  0
   -0.7602   -1.5424    1.4601 C   0  0  0  0  0  0  0  0  0  0  0  0
   -0.1463   -2.2806    0.2677 C   0  0  0  0  0  0  0  0  0  0  0  0
   -2.8025   -0.0439    2.2393 S   0  0  0  0  0  0  0  0  0  0  0  0
   -2.1222    1.1012    2.8104 O   0  0  0  0  0  0  0  0  0  0  0  0
   -3.1804   -1.1772    3.0522 O   0  0  0  0  0  0  0  0  0  0  0  0
   -4.2311    0.5263    1.3589 C   0  0  0  0  0  0  0  0  0  0  0  0
   -4.9976   -0.3613    0.5988 C   0  0  0  0  0  0  0  0  0  0  0  0
   -6.1248    0.1055   -0.0974 C   0  0  0  0  0  0  0  0  0  0  0  0
   -6.4741    1.4800   -0.0322 C   0  0  0  0  0  0  0  0  0  0  0  0
   -5.6776    2.3540    0.7254 C   0  0  0  0  0  0  0  0  0  0  0  0
   -4.5572    1.8795    1.4122 C   0  0  0  0  0  0  0  0  0  0  0  0
   -7.6053    1.9403   -0.7249 C   0  0  0  0  0  0  0  0  0  0  0  0
   -8.3802    1.0508   -1.4733 C   0  0  0  0  0  0  0  0  0  0  0  0
   -8.0418   -0.2968   -1.5425 C   0  0  0  0  0  0  0  0  0  0  0  0
   -6.9189   -0.7680   -0.8580 C   0  0  0  0  0  0  0  0  0  0  0  0
   -9.7643    1.6249   -2.3187 Cl  0  0  0  0  0  0  0  0  0  0  0  0
    7.7687    2.3574    2.4996 H   0  0  0  0  0  0  0  0  0  0  0  0
    6.1039    0.5523    2.2102 H   0  0  0  0  0  0  0  0  0  0  0  0
    6.1658    1.4269   -2.0149 H   0  0  0  0  0  0  0  0  0  0  0  0
    7.8590    3.1357   -1.5394 H   0  0  0  0  0  0  0  0  0  0  0  0
    5.6590   -0.7398   -2.0172 H   0  0  0  0  0  0  0  0  0  0  0  0
    4.1489    0.1906   -2.0106 H   0  0  0  0  0  0  0  0  0  0  0  0
    4.6318   -2.7159   -1.1854 H   0  0  0  0  0  0  0  0  0  0  0  0
    3.6843   -2.1548   -2.5643 H   0  0  0  0  0  0  0  0  0  0  0  0
    2.3533   -2.9933   -0.5940 H   0  0  0  0  0  0  0  0  0  0  0  0
    3.7744   -2.2092    1.2161 H   0  0  0  0  0  0  0  0  0  0  0  0
    2.2163   -1.4177    1.4271 H   0  0  0  0  0  0  0  0  0  0  0  0
    4.0232    0.1935    1.7455 H   0  0  0  0  0  0  0  0  0  0  0  0
    3.0803    0.6419    0.3232 H   0  0  0  0  0  0  0  0  0  0  0  0
   -1.5437   -1.0626   -1.6814 H   0  0  0  0  0  0  0  0  0  0  0  0
   -0.3945    0.2599   -1.9615 H   0  0  0  0  0  0  0  0  0  0  0  0
   -0.6667    1.0265    0.3911 H   0  0  0  0  0  0  0  0  0  0  0  0
   -2.2666    0.8820   -0.3884 H   0  0  0  0  0  0  0  0  0  0  0  0
   -1.1971   -2.2744    2.1425 H   0  0  0  0  0  0  0  0  0  0  0  0
    0.0020   -0.9603    1.9875 H   0  0  0  0  0  0  0  0  0  0  0  0
   -0.9108   -2.9086   -0.2049 H   0  0  0  0  0  0  0  0  0  0  0  0
    0.6692   -2.9287    0.5807 H   0  0  0  0  0  0  0  0  0  0  0  0
   -4.7167   -1.4120    0.5571 H   0  0  0  0  0  0  0  0  0  0  0  0
   -5.9261    3.4122    0.7903 H   0  0  0  0  0  0  0  0  0  0  0  0
   -3.9450    2.5683    1.9957 H   0  0  0  0  0  0  0  0  0  0  0  0
   -7.8888    2.9918   -0.6849 H   0  0  0  0  0  0  0  0  0  0  0  0
   -8.6524   -0.9838   -2.1290 H   0  0  0  0  0  0  0  0  0  0  0  0
   -6.6642   -1.8255   -0.9177 H   0  0  0  0  0  0  0  0  0  0  0  0
  1  2  2  0  0  0  0
  2 35  1  0  0  0  0
  3  2  1  0  0  0  0
  3 36  1  0  0  0  0
  4  3  2  0  0  0  0
  5  6  2  0  0  0  0
  5  4  1  0  0  0  0
  6  1  1  0  0  0  0
  7  4  1  0  0  0  0
  7 12  1  0  0  0  0
  8  7  1  0  0  0  0
  9  8  1  0  0  0  0
  9 41  1  0  0  0  0
  9 10  1  0  0  0  0
 10 43  1  0  0  0  0
 10 11  1  0  0  0  0
 11 44  1  0  0  0  0
 11 45  1  0  0  0  0
 12 11  1  0  0  0  0
 12 46  1  0  0  0  0
 13 15  1  0  0  0  0
 13 10  1  0  0  0  0
 14 13  2  0  0  0  0
 15 20  1  0  0  0  0
 16 15  1  0  0  0  0
 16 17  1  0  0  0  0
 17 50  1  0  0  0  0
 17 18  1  0  0  0  0
 18 19  1  0  0  0  0
 18 21  1  0  0  0  0
 19 53  1  0  0  0  0
 19 52  1  0  0  0  0
 20 55  1  0  0  0  0
 20 19  1  0  0  0  0
 21 22  2  0  0  0  0
 21 23  2  0  0  0  0
 24 29  1  0  0  0  0
 24 21  1  0  0  0  0
 25 24  2  0  0  0  0
 26 27  1  0  0  0  0
 26 25  1  0  0  0  0
 27 28  1  0  0  0  0
 28 57  1  0  0  0  0
 28 29  2  0  0  0  0
 29 58  1  0  0  0  0
 30 59  1  0  0  0  0
 30 27  2  0  0  0  0
 31 30  1  0  0  0  0
 32 31  2  0  0  0  0
 32 33  1  0  0  0  0
 33 26  2  0  0  0  0
 34 31  1  0  0  0  0
 37  5  1  0  0  0  0
 38  6  1  0  0  0  0
 39  8  1  0  0  0  0
 40  8  1  0  0  0  0
 42  9  1  0  0  0  0
 47 12  1  0  0  0  0
 48 16  1  0  0  0  0
 49 16  1  0  0  0  0
 51 17  1  0  0  0  0
 54 20  1  0  0  0  0
 56 25  1  0  0  0  0
 60 32  1  0  0  0  0
 61 33  1  0  0  0  0
M  END
