47.6358
 OpenBabel10231816213D

 36 36  0  0  1  0  0  0  0  0999 V2000
    4.6269    0.9872   -0.1531 C   0  0  0  0  0  0  0  0  0  0  0  0
    3.5187    1.6273   -0.9347 C   0  0  0  0  0  0  0  0  0  0  0  0
    3.5040    0.1464   -0.7002 C   0  0  0  0  0  0  0  0  0  0  0  0
    2.5875   -0.4740    0.2416 N   0  0  0  0  0  0  0  0  0  0  0  0
    1.1588   -0.2457   -0.0703 C   0  0  0  0  0  0  0  0  0  0  0  0
    0.3349   -0.9825    1.0112 C   0  0  0  0  0  0  0  0  0  0  0  0
   -1.2116   -0.8957    0.8312 C   0  0  1  0  0  0  0  0  0  0  0  0
   -1.8225   -1.6271    1.9791 N   0  0  0  0  0  0  0  0  0  0  0  0
   -1.7694    0.5409    0.8133 C   0  0  0  0  0  0  0  0  0  0  0  0
   -3.1861    0.6384    0.2260 C   0  0  0  0  0  0  0  0  0  0  0  0
   -3.2181    0.9486   -1.2766 C   0  0  0  0  0  0  0  0  0  0  0  0
   -2.5175   -0.0759   -2.1536 C   0  0  0  0  0  0  0  0  0  0  0  0
    0.6855   -0.4912    2.3023 O   0  0  0  0  0  0  0  0  0  0  0  0
    0.7102   -2.3656    0.9878 O   0  0  0  0  0  0  0  0  0  0  0  0
    4.6732    1.1790    0.9075 H   0  0  0  0  0  0  0  0  0  0  0  0
    5.5989    0.8892   -0.6293 H   0  0  0  0  0  0  0  0  0  0  0  0
    2.8251    2.2593   -0.3919 H   0  0  0  0  0  0  0  0  0  0  0  0
    3.7276    1.9676   -1.9432 H   0  0  0  0  0  0  0  0  0  0  0  0
    3.7414   -0.4811   -1.5575 H   0  0  0  0  0  0  0  0  0  0  0  0
    2.7302   -0.1454    1.2042 H   0  0  0  0  0  0  0  0  0  0  0  0
    0.9315   -0.6428   -1.0639 H   0  0  0  0  0  0  0  0  0  0  0  0
    0.9546    0.8294   -0.0489 H   0  0  0  0  0  0  0  0  0  0  0  0
   -1.4831   -1.4365   -0.0776 H   0  0  0  0  0  0  0  0  0  0  0  0
   -2.8284   -1.7004    1.8435 H   0  0  0  0  0  0  0  0  0  0  0  0
   -1.4595   -2.5876    1.9293 H   0  0  0  0  0  0  0  0  0  0  0  0
   -1.1161    1.2203    0.2586 H   0  0  0  0  0  0  0  0  0  0  0  0
   -1.7915    0.9290    1.8406 H   0  0  0  0  0  0  0  0  0  0  0  0
   -3.7094    1.4585    0.7350 H   0  0  0  0  0  0  0  0  0  0  0  0
   -3.7659   -0.2683    0.4298 H   0  0  0  0  0  0  0  0  0  0  0  0
   -4.2657    1.0216   -1.5920 H   0  0  0  0  0  0  0  0  0  0  0  0
   -2.7700    1.9339   -1.4540 H   0  0  0  0  0  0  0  0  0  0  0  0
   -2.9167   -1.0804   -1.9838 H   0  0  0  0  0  0  0  0  0  0  0  0
   -1.4402   -0.0879   -1.9699 H   0  0  0  0  0  0  0  0  0  0  0  0
   -2.6619    0.1706   -3.2105 H   0  0  0  0  0  0  0  0  0  0  0  0
   -0.0470   -0.8320    2.8607 H   0  0  0  0  0  0  0  0  0  0  0  0
    1.6716   -2.3272    0.8096 H   0  0  0  0  0  0  0  0  0  0  0  0
  1 15  1  0  0  0  0
  2  3  1  0  0  0  0
  2 17  1  0  0  0  0
  2  1  1  0  0  0  0
  3  1  1  0  0  0  0
  3  4  1  0  0  0  0
  4 20  1  0  0  0  0
  5 22  1  0  0  0  0
  5  4  1  0  0  0  0
  5  6  1  0  0  0  0
  6 13  1  0  0  0  0
  7 23  1  6  0  0  0
  7  6  1  0  0  0  0
  7  8  1  0  0  0  0
  9  7  1  0  0  0  0
  9 27  1  0  0  0  0
 10 29  1  0  0  0  0
 10 28  1  0  0  0  0
 10  9  1  0  0  0  0
 11 10  1  0  0  0  0
 12 32  1  0  0  0  0
 12 33  1  0  0  0  0
 12 11  1  0  0  0  0
 13 35  1  0  0  0  0
 14  6  1  0  0  0  0
 16  1  1  0  0  0  0
 18  2  1  0  0  0  0
 19  3  1  0  0  0  0
 21  5  1  0  0  0  0
 24  8  1  0  0  0  0
 25  8  1  0  0  0  0
 26  9  1  0  0  0  0
 30 11  1  0  0  0  0
 31 11  1  0  0  0  0
 34 12  1  0  0  0  0
 36 14  1  0  0  0  0
M  END
