63.2042
 OpenBabel10231816213D

 40 42  0  0  0  0  0  0  0  0999 V2000
    5.2759    2.4149   -0.2744 O   0  0  0  0  0  0  0  0  0  0  0  0
    5.2500    1.6119    0.6621 C   0  0  0  0  0  0  0  0  0  0  0  0
    6.4947    1.2744    1.4381 C   0  0  0  0  0  0  0  0  0  0  0  0
    3.9682    0.9515    1.0512 C   0  0  0  0  0  0  0  0  0  0  0  0
    3.8802    0.0421    2.1097 C   0  0  0  0  0  0  0  0  0  0  0  0
    2.6476   -0.5414    2.4311 C   0  0  0  0  0  0  0  0  0  0  0  0
    1.5067   -0.2510    1.6786 C   0  0  0  0  0  0  0  0  0  0  0  0
    1.5854    0.6718    0.6387 C   0  0  0  0  0  0  0  0  0  0  0  0
    2.8123    1.2687    0.3278 C   0  0  0  0  0  0  0  0  0  0  0  0
    0.3027   -0.8746    2.0369 N   0  0  0  0  0  0  0  0  0  0  0  0
   -0.8047   -1.1870    1.2682 C   0  0  0  0  0  0  0  0  0  0  0  0
   -1.8745   -1.3893    1.8614 O   0  0  0  0  0  0  0  0  0  0  0  0
   -0.6659   -1.3793   -0.1700 C   0  0  0  0  0  0  0  0  0  0  0  0
    0.4242   -1.9621   -0.8792 C   0  0  0  0  0  0  0  0  0  0  0  0
    0.1832   -2.1103   -2.1835 N   0  0  0  0  0  0  0  0  0  0  0  0
   -1.0526   -1.6131   -2.3246 N   0  0  0  0  0  0  0  0  0  0  0  0
   -1.6113   -1.1210   -1.1642 C   0  0  0  0  0  0  0  0  0  0  0  0
   -2.9237   -0.4556   -1.1634 C   0  0  0  0  0  0  0  0  0  0  0  0
   -3.2628    0.4254   -0.1270 C   0  0  0  0  0  0  0  0  0  0  0  0
   -4.4789    1.1066   -0.1155 C   0  0  0  0  0  0  0  0  0  0  0  0
   -4.8449    2.1790    1.1872 Cl  0  0  0  0  0  0  0  0  0  0  0  0
   -5.3820    0.9174   -1.1538 C   0  0  0  0  0  0  0  0  0  0  0  0
   -6.5702    1.5967   -1.1190 O   0  0  0  0  0  0  0  0  0  0  0  0
   -5.0773    0.0551   -2.2052 C   0  0  0  0  0  0  0  0  0  0  0  0
   -3.8526   -0.6220   -2.2047 C   0  0  0  0  0  0  0  0  0  0  0  0
   -3.5456   -1.4670   -3.2436 O   0  0  0  0  0  0  0  0  0  0  0  0
    7.3351    1.8384    1.0196 H   0  0  0  0  0  0  0  0  0  0  0  0
    6.7186    0.2071    1.3623 H   0  0  0  0  0  0  0  0  0  0  0  0
    6.3789    1.5498    2.4896 H   0  0  0  0  0  0  0  0  0  0  0  0
    4.7511   -0.2245    2.7005 H   0  0  0  0  0  0  0  0  0  0  0  0
    2.5956   -1.2566    3.2499 H   0  0  0  0  0  0  0  0  0  0  0  0
    0.6976    0.9526    0.0761 H   0  0  0  0  0  0  0  0  0  0  0  0
    2.8844    1.9872   -0.4870 H   0  0  0  0  0  0  0  0  0  0  0  0
    0.1324   -0.9937    3.0315 H   0  0  0  0  0  0  0  0  0  0  0  0
    1.3734   -2.3144   -0.4946 H   0  0  0  0  0  0  0  0  0  0  0  0
   -1.4889   -1.6460   -3.2456 H   0  0  0  0  0  0  0  0  0  0  0  0
   -2.5783    0.5948    0.6956 H   0  0  0  0  0  0  0  0  0  0  0  0
   -7.1062    1.3731   -1.8900 H   0  0  0  0  0  0  0  0  0  0  0  0
   -5.7788   -0.0908   -3.0154 H   0  0  0  0  0  0  0  0  0  0  0  0
   -4.2991   -1.5189   -3.8552 H   0  0  0  0  0  0  0  0  0  0  0  0
  1  2  2  0  0  0  0
  2  4  1  0  0  0  0
  2  3  1  0  0  0  0
  3 29  1  0  0  0  0
  4  5  2  0  0  0  0
  5  6  1  0  0  0  0
  5 30  1  0  0  0  0
  6 31  1  0  0  0  0
  7 10  1  0  0  0  0
  7  6  2  0  0  0  0
  8  7  1  0  0  0  0
  9  8  2  0  0  0  0
  9  4  1  0  0  0  0
 10 34  1  0  0  0  0
 11 12  2  0  0  0  0
 11 10  1  0  0  0  0
 13 11  1  0  0  0  0
 14 35  1  0  0  0  0
 14 13  1  0  0  0  0
 15 14  2  0  0  0  0
 16 15  1  0  0  0  0
 16 17  1  0  0  0  0
 17 18  1  0  0  0  0
 17 13  2  0  0  0  0
 18 19  2  0  0  0  0
 19 20  1  0  0  0  0
 19 37  1  0  0  0  0
 20 21  1  0  0  0  0
 22 23  1  0  0  0  0
 22 20  2  0  0  0  0
 24 25  2  0  0  0  0
 24 22  1  0  0  0  0
 25 18  1  0  0  0  0
 26 25  1  0  0  0  0
 27  3  1  0  0  0  0
 28  3  1  0  0  0  0
 32  8  1  0  0  0  0
 33  9  1  0  0  0  0
 36 16  1  0  0  0  0
 38 23  1  0  0  0  0
 39 24  1  0  0  0  0
 40 26  1  0  0  0  0
M  END
