2.69456
 OpenBabel10231816213D

 66 68  0  0  1  0  0  0  0  0999 V2000
    0.7283    0.3902    0.4531 C   0  0  2  0  0  0  0  0  0  0  0  0
    1.2232   -1.0737    0.2635 C   0  0  0  0  0  0  0  0  0  0  0  0
    0.1315   -2.0340   -0.1676 C   0  0  0  0  0  0  0  0  0  0  0  0
   -0.3715   -1.9637   -1.4730 C   0  0  0  0  0  0  0  0  0  0  0  0
   -1.5593   -2.6072   -1.8197 C   0  0  0  0  0  0  0  0  0  0  0  0
   -2.2502   -3.3474   -0.8693 C   0  0  0  0  0  0  0  0  0  0  0  0
   -1.7063   -3.5063    0.4058 C   0  0  0  0  0  0  0  0  0  0  0  0
   -0.5329   -2.8366    0.7642 C   0  0  0  0  0  0  0  0  0  0  0  0
   -3.4289   -3.9893   -1.1001 O   0  0  0  0  0  0  0  0  0  0  0  0
   -4.4407   -3.2712   -1.8067 C   0  0  0  0  0  0  0  0  0  0  0  0
   -5.2519   -2.2881   -0.9426 C   0  0  0  0  0  0  0  0  0  0  0  0
   -4.4797   -1.0533   -0.4390 C   0  0  0  0  0  0  0  0  0  0  0  0
   -3.9619   -1.2113    0.9780 C   0  0  0  0  0  0  0  0  0  0  0  0
   -4.1781   -2.2228    1.6695 O   0  0  0  0  0  0  0  0  0  0  0  0
   -3.2465   -0.1999    1.5468 N   0  0  0  0  0  0  0  0  0  0  0  0
   -2.9758    1.1605    1.0359 C   0  0  2  0  0  0  0  0  0  0  0  0
   -1.4585    1.3999    1.1171 C   0  0  0  0  0  0  0  0  0  0  0  0
   -0.9338    2.3370    1.7069 O   0  0  0  0  0  0  0  0  0  0  0  0
   -0.7388    0.4642    0.4322 N   0  0  0  0  0  0  0  0  0  0  0  0
   -3.7162    2.2186    1.8370 C   0  0  0  0  0  0  0  0  0  0  0  0
   -3.7727    3.5147    1.0625 C   0  0  0  0  0  0  0  0  0  0  0  0
   -3.7151    3.5760   -0.1703 O   0  0  0  0  0  0  0  0  0  0  0  0
   -3.9675    4.6334    1.8130 N   0  0  0  0  0  0  0  0  0  0  0  0
    1.2815    1.3699   -0.6069 C   0  0  2  0  0  0  0  0  0  0  0  0
    0.8439    0.9632   -1.9119 O   0  0  0  0  0  0  0  0  0  0  0  0
    2.7997    1.5042   -0.6717 C   0  0  0  0  0  0  0  0  0  0  0  0
    3.3504    2.0643    0.5560 N   0  0  0  0  0  0  0  0  0  0  0  0
    4.9227    2.6458    0.5227 S   0  0  0  0  0  0  0  0  0  0  0  0
    5.2707    2.8870    1.9132 O   0  0  0  0  0  0  0  0  0  0  0  0
    5.0013    3.6745   -0.4780 O   0  0  0  0  0  0  0  0  0  0  0  0
    5.8628    1.2445   -0.0338 C   0  0  0  0  0  0  0  0  0  0  0  0
    5.9443    0.9646   -1.3993 C   0  0  0  0  0  0  0  0  0  0  0  0
    6.6597   -0.1530   -1.8343 C   0  0  0  0  0  0  0  0  0  0  0  0
    7.3095   -0.9694   -0.9077 C   0  0  0  0  0  0  0  0  0  0  0  0
    7.2484   -0.6693    0.4542 C   0  0  0  0  0  0  0  0  0  0  0  0
    6.5286    0.4434    0.8923 C   0  0  0  0  0  0  0  0  0  0  0  0
    1.0428    0.7558    1.4388 H   0  0  0  0  0  0  0  0  0  0  0  0
    1.6671   -1.4302    1.2031 H   0  0  0  0  0  0  0  0  0  0  0  0
    2.0215   -1.1119   -0.4818 H   0  0  0  0  0  0  0  0  0  0  0  0
    0.1426   -1.3514   -2.2092 H   0  0  0  0  0  0  0  0  0  0  0  0
   -1.9267   -2.5292   -2.8347 H   0  0  0  0  0  0  0  0  0  0  0  0
   -2.2418   -4.1054    1.1419 H   0  0  0  0  0  0  0  0  0  0  0  0
   -0.1616   -2.9057    1.7839 H   0  0  0  0  0  0  0  0  0  0  0  0
   -5.1308   -4.0479   -2.1694 H   0  0  0  0  0  0  0  0  0  0  0  0
   -4.0599   -2.7586   -2.6965 H   0  0  0  0  0  0  0  0  0  0  0  0
   -5.6991   -2.8241   -0.0971 H   0  0  0  0  0  0  0  0  0  0  0  0
   -6.0807   -1.9384   -1.5718 H   0  0  0  0  0  0  0  0  0  0  0  0
   -5.1580   -0.1917   -0.4254 H   0  0  0  0  0  0  0  0  0  0  0  0
   -3.6606   -0.8045   -1.1191 H   0  0  0  0  0  0  0  0  0  0  0  0
   -2.9660   -0.4025    2.5025 H   0  0  0  0  0  0  0  0  0  0  0  0
   -3.2780    1.2049   -0.0105 H   0  0  0  0  0  0  0  0  0  0  0  0
   -1.2611   -0.3554    0.1485 H   0  0  0  0  0  0  0  0  0  0  0  0
   -3.2438    2.3806    2.8127 H   0  0  0  0  0  0  0  0  0  0  0  0
   -4.7470    1.8888    2.0077 H   0  0  0  0  0  0  0  0  0  0  0  0
   -4.0878    4.6056    2.8160 H   0  0  0  0  0  0  0  0  0  0  0  0
   -4.0631    5.5287    1.3440 H   0  0  0  0  0  0  0  0  0  0  0  0
    0.8548    2.3593   -0.4026 H   0  0  0  0  0  0  0  0  0  0  0  0
   -0.1297    0.9528   -1.8644 H   0  0  0  0  0  0  0  0  0  0  0  0
    3.2643    0.5371   -0.8749 H   0  0  0  0  0  0  0  0  0  0  0  0
    3.0334    2.1561   -1.5194 H   0  0  0  0  0  0  0  0  0  0  0  0
    3.1855    1.5623    1.4203 H   0  0  0  0  0  0  0  0  0  0  0  0
    5.4378    1.6027   -2.1179 H   0  0  0  0  0  0  0  0  0  0  0  0
    6.7106   -0.3821   -2.8951 H   0  0  0  0  0  0  0  0  0  0  0  0
    7.8695   -1.8374   -1.2503 H   0  0  0  0  0  0  0  0  0  0  0  0
    7.7608   -1.3008    1.1764 H   0  0  0  0  0  0  0  0  0  0  0  0
    6.4848    0.6831    1.9523 H   0  0  0  0  0  0  0  0  0  0  0  0
  1 37  1  1  0  0  0
  2  1  1  0  0  0  0
  2 38  1  0  0  0  0
  3  2  1  0  0  0  0
  3  8  2  0  0  0  0
  4  3  1  0  0  0  0
  5  4  2  0  0  0  0
  5  6  1  0  0  0  0
  6  7  2  0  0  0  0
  7  8  1  0  0  0  0
  7 42  1  0  0  0  0
  8 43  1  0  0  0  0
  9  6  1  0  0  0  0
 10  9  1  0  0  0  0
 10 11  1  0  0  0  0
 11 12  1  0  0  0  0
 11 46  1  0  0  0  0
 12 48  1  0  0  0  0
 12 13  1  0  0  0  0
 13 15  1  0  0  0  0
 13 14  2  0  0  0  0
 15 50  1  0  0  0  0
 16 51  1  6  0  0  0
 16 17  1  0  0  0  0
 16 15  1  0  0  0  0
 16 20  1  0  0  0  0
 17 18  2  0  0  0  0
 19  1  1  0  0  0  0
 19 17  1  0  0  0  0
 20 54  1  0  0  0  0
 20 53  1  0  0  0  0
 21 23  1  0  0  0  0
 21 20  1  0  0  0  0
 22 21  2  0  0  0  0
 23 55  1  0  0  0  0
 24 57  1  1  0  0  0
 24  1  1  0  0  0  0
 25 58  1  0  0  0  0
 25 24  1  0  0  0  0
 26 24  1  0  0  0  0
 26 27  1  0  0  0  0
 27 61  1  0  0  0  0
 28 27  1  0  0  0  0
 28 29  2  0  0  0  0
 30 28  2  0  0  0  0
 31 28  1  0  0  0  0
 31 36  2  0  0  0  0
 32 31  1  0  0  0  0
 33 32  2  0  0  0  0
 33 34  1  0  0  0  0
 34 35  2  0  0  0  0
 35 36  1  0  0  0  0
 35 65  1  0  0  0  0
 36 66  1  0  0  0  0
 39  2  1  0  0  0  0
 40  4  1  0  0  0  0
 41  5  1  0  0  0  0
 44 10  1  0  0  0  0
 45 10  1  0  0  0  0
 47 11  1  0  0  0  0
 49 12  1  0  0  0  0
 52 19  1  0  0  0  0
 56 23  1  0  0  0  0
 59 26  1  0  0  0  0
 60 26  1  0  0  0  0
 62 32  1  0  0  0  0
 63 33  1  0  0  0  0
 64 34  1  0  0  0  0
M  END
