-10.6356
 OpenBabel10231816213D

 66 68  0  0  1  0  0  0  0  0999 V2000
    0.5234    0.8615    0.3498 C   0  0  2  0  0  0  0  0  0  0  0  0
    0.9480    0.3206   -1.0284 C   0  0  0  0  0  0  0  0  0  0  0  0
    0.1650   -0.9301   -1.3772 C   0  0  0  0  0  0  0  0  0  0  0  0
    0.3060   -2.0821   -0.5984 C   0  0  0  0  0  0  0  0  0  0  0  0
   -0.5654   -3.1612   -0.7622 C   0  0  0  0  0  0  0  0  0  0  0  0
   -1.5954   -3.0876   -1.6967 C   0  0  0  0  0  0  0  0  0  0  0  0
   -1.6715   -1.9976   -2.5555 C   0  0  0  0  0  0  0  0  0  0  0  0
   -0.7989   -0.9165   -2.3917 C   0  0  0  0  0  0  0  0  0  0  0  0
   -2.4848   -4.1195   -1.7282 O   0  0  0  0  0  0  0  0  0  0  0  0
   -3.8640   -3.7608   -1.5317 C   0  0  0  0  0  0  0  0  0  0  0  0
   -4.2053   -3.3377   -0.0955 C   0  0  0  0  0  0  0  0  0  0  0  0
   -3.8878   -1.8672    0.2163 C   0  0  0  0  0  0  0  0  0  0  0  0
   -4.1835   -1.5241    1.6589 C   0  0  0  0  0  0  0  0  0  0  0  0
   -4.6551   -2.3422    2.4657 O   0  0  0  0  0  0  0  0  0  0  0  0
   -3.9174   -0.2554    2.0862 N   0  0  0  0  0  0  0  0  0  0  0  0
   -3.1658    0.7777    1.3627 C   0  0  2  0  0  0  0  0  0  0  0  0
   -1.6647    0.4698    1.4465 C   0  0  0  0  0  0  0  0  0  0  0  0
   -1.1551   -0.1910    2.3620 O   0  0  0  0  0  0  0  0  0  0  0  0
   -0.9287    1.0209    0.4354 N   0  0  0  0  0  0  0  0  0  0  0  0
   -3.4762    2.1311    1.9914 C   0  0  0  0  0  0  0  0  0  0  0  0
   -3.0373    3.2958    1.1329 C   0  0  0  0  0  0  0  0  0  0  0  0
   -2.6599    3.1996   -0.0248 O   0  0  0  0  0  0  0  0  0  0  0  0
   -3.1068    4.5112    1.7562 N   0  0  0  0  0  0  0  0  0  0  0  0
    1.1667    2.2045    0.7200 C   0  0  2  0  0  0  0  0  0  0  0  0
    0.6837    3.2044   -0.1991 O   0  0  0  0  0  0  0  0  0  0  0  0
    2.7009    2.1822    0.6982 C   0  0  0  0  0  0  0  0  0  0  0  0
    3.1845    2.3197   -0.6853 N   0  0  0  0  0  0  0  0  0  0  0  0
    4.8332    2.2623   -0.9718 S   0  0  0  0  0  0  0  0  0  0  0  0
    4.9928    2.5301   -2.3840 O   0  0  0  0  0  0  0  0  0  0  0  0
    5.4648    3.0871    0.0313 O   0  0  0  0  0  0  0  0  0  0  0  0
    5.2534    0.5748   -0.6694 C   0  0  0  0  0  0  0  0  0  0  0  0
    5.7089    0.1955    0.5940 C   0  0  0  0  0  0  0  0  0  0  0  0
    6.0589   -1.1335    0.8322 C   0  0  0  0  0  0  0  0  0  0  0  0
    5.9689   -2.0717   -0.1971 C   0  0  0  0  0  0  0  0  0  0  0  0
    5.5319   -1.6806   -1.4648 C   0  0  0  0  0  0  0  0  0  0  0  0
    5.1805   -0.3523   -1.7047 C   0  0  0  0  0  0  0  0  0  0  0  0
    0.8117    0.1320    1.1132 H   0  0  0  0  0  0  0  0  0  0  0  0
    0.7985    1.0869   -1.7996 H   0  0  0  0  0  0  0  0  0  0  0  0
    2.0167    0.0732   -1.0086 H   0  0  0  0  0  0  0  0  0  0  0  0
    1.0702   -2.1157    0.1748 H   0  0  0  0  0  0  0  0  0  0  0  0
   -0.4756   -4.0340   -0.1210 H   0  0  0  0  0  0  0  0  0  0  0  0
   -2.4208   -1.9748   -3.3374 H   0  0  0  0  0  0  0  0  0  0  0  0
   -0.8997   -0.0467   -3.0353 H   0  0  0  0  0  0  0  0  0  0  0  0
   -4.4140   -4.6879   -1.7545 H   0  0  0  0  0  0  0  0  0  0  0  0
   -4.2034   -3.0059   -2.2483 H   0  0  0  0  0  0  0  0  0  0  0  0
   -5.2822   -3.4837    0.0672 H   0  0  0  0  0  0  0  0  0  0  0  0
   -3.6840   -3.9905    0.6141 H   0  0  0  0  0  0  0  0  0  0  0  0
   -4.4772   -1.2125   -0.4326 H   0  0  0  0  0  0  0  0  0  0  0  0
   -2.8341   -1.6492    0.0455 H   0  0  0  0  0  0  0  0  0  0  0  0
   -3.9186   -0.1837    3.0980 H   0  0  0  0  0  0  0  0  0  0  0  0
   -3.4677    0.7660    0.3120 H   0  0  0  0  0  0  0  0  0  0  0  0
   -1.3496    1.7456   -0.1512 H   0  0  0  0  0  0  0  0  0  0  0  0
   -4.5634    2.2074    2.1072 H   0  0  0  0  0  0  0  0  0  0  0  0
   -3.0338    2.2077    2.9898 H   0  0  0  0  0  0  0  0  0  0  0  0
   -2.9403    5.3425    1.1974 H   0  0  0  0  0  0  0  0  0  0  0  0
   -3.5697    4.6273    2.6478 H   0  0  0  0  0  0  0  0  0  0  0  0
    0.8195    2.4559    1.7331 H   0  0  0  0  0  0  0  0  0  0  0  0
    0.6994    4.0652    0.2497 H   0  0  0  0  0  0  0  0  0  0  0  0
    3.0737    3.0239    1.2899 H   0  0  0  0  0  0  0  0  0  0  0  0
    3.0721    1.2529    1.1277 H   0  0  0  0  0  0  0  0  0  0  0  0
    2.7724    3.1141   -1.1839 H   0  0  0  0  0  0  0  0  0  0  0  0
    5.7846    0.9342    1.3881 H   0  0  0  0  0  0  0  0  0  0  0  0
    6.4042   -1.4341    1.8184 H   0  0  0  0  0  0  0  0  0  0  0  0
    6.2438   -3.1087   -0.0142 H   0  0  0  0  0  0  0  0  0  0  0  0
    5.4678   -2.4080   -2.2696 H   0  0  0  0  0  0  0  0  0  0  0  0
    4.8513   -0.0369   -2.6912 H   0  0  0  0  0  0  0  0  0  0  0  0
  1 19  1  0  0  0  0
  1 24  1  0  0  0  0
  1 37  1  1  0  0  0
  2 39  1  0  0  0  0
  2  1  1  0  0  0  0
  3  2  1  0  0  0  0
  3  4  2  0  0  0  0
  4 40  1  0  0  0  0
  5  4  1  0  0  0  0
  5 41  1  0  0  0  0
  6  5  2  0  0  0  0
  7  8  2  0  0  0  0
  7  6  1  0  0  0  0
  8  3  1  0  0  0  0
  9  6  1  0  0  0  0
  9 10  1  0  0  0  0
 10 11  1  0  0  0  0
 11 46  1  0  0  0  0
 11 12  1  0  0  0  0
 11 47  1  0  0  0  0
 12 13  1  0  0  0  0
 13 15  1  0  0  0  0
 13 14  2  0  0  0  0
 15 50  1  0  0  0  0
 16 51  1  6  0  0  0
 16 17  1  0  0  0  0
 16 20  1  0  0  0  0
 16 15  1  0  0  0  0
 17 18  2  0  0  0  0
 19 17  1  0  0  0  0
 20 53  1  0  0  0  0
 20 54  1  0  0  0  0
 21 23  1  0  0  0  0
 21 20  1  0  0  0  0
 22 21  2  0  0  0  0
 23 56  1  0  0  0  0
 24 57  1  1  0  0  0
 25 58  1  0  0  0  0
 25 24  1  0  0  0  0
 26 24  1  0  0  0  0
 26 60  1  0  0  0  0
 26 59  1  0  0  0  0
 27 26  1  0  0  0  0
 28 27  1  0  0  0  0
 28 31  1  0  0  0  0
 28 30  2  0  0  0  0
 29 28  2  0  0  0  0
 31 32  2  0  0  0  0
 32 33  1  0  0  0  0
 32 62  1  0  0  0  0
 33 63  1  0  0  0  0
 34 64  1  0  0  0  0
 34 33  2  0  0  0  0
 35 34  1  0  0  0  0
 36 35  2  0  0  0  0
 36 31  1  0  0  0  0
 38  2  1  0  0  0  0
 42  7  1  0  0  0  0
 43  8  1  0  0  0  0
 44 10  1  0  0  0  0
 45 10  1  0  0  0  0
 48 12  1  0  0  0  0
 49 12  1  0  0  0  0
 52 19  1  0  0  0  0
 55 23  1  0  0  0  0
 61 27  1  0  0  0  0
 65 35  1  0  0  0  0
 66 36  1  0  0  0  0
M  END
