37.0976
 OpenBabel10231816213D

 25 25  0  0  1  0  0  0  0  0999 V2000
   -1.3611   -3.6835   -1.4356 O   0  0  0  0  0  0  0  0  0  0  0  0
   -0.6446   -2.7570   -0.7546 C   0  0  0  0  0  0  0  0  0  0  0  0
    0.5010   -2.9675   -0.3752 O   0  0  0  0  0  0  0  0  0  0  0  0
   -1.3332   -1.4879   -0.5238 C   0  0  0  0  0  0  0  0  0  0  0  0
   -2.5496   -1.2590   -1.0376 N   0  0  0  0  0  0  0  0  0  0  0  0
   -2.8669    0.0474   -0.6905 O   0  0  0  0  0  0  0  0  0  0  0  0
   -1.8540    0.5849    0.0395 C   0  0  0  0  0  0  0  0  0  0  0  0
   -0.8571   -0.3514    0.1994 C   0  0  0  0  0  0  0  0  0  0  0  0
    0.4543   -0.2041    0.8945 C   0  0  0  0  0  0  0  0  0  0  0  0
    1.5849    0.1991   -0.0573 C   0  0  2  0  0  0  0  0  0  0  0  0
    2.9124    0.0049    0.5968 N   0  0  0  0  0  0  0  0  0  0  0  0
    1.4499    1.6756   -0.4125 C   0  0  0  0  0  0  0  0  0  0  0  0
    0.6596    2.1243   -1.2361 O   0  0  0  0  0  0  0  0  0  0  0  0
    2.2586    2.4776    0.3149 O   0  0  0  0  0  0  0  0  0  0  0  0
   -1.9861    1.9987    0.4537 C   0  0  0  0  0  0  0  0  0  0  0  0
   -2.2362   -3.3045   -1.6598 H   0  0  0  0  0  0  0  0  0  0  0  0
    0.3793    0.5208    1.7128 H   0  0  0  0  0  0  0  0  0  0  0  0
    0.7022   -1.1702    1.3503 H   0  0  0  0  0  0  0  0  0  0  0  0
    1.5111   -0.3842   -0.9892 H   0  0  0  0  0  0  0  0  0  0  0  0
    3.6053   -0.2268   -0.1268 H   0  0  0  0  0  0  0  0  0  0  0  0
    2.8745   -0.8235    1.2004 H   0  0  0  0  0  0  0  0  0  0  0  0
    2.8256    1.8726    0.8452 H   0  0  0  0  0  0  0  0  0  0  0  0
   -2.9912    2.2159    0.8231 H   0  0  0  0  0  0  0  0  0  0  0  0
   -1.2696    2.2276    1.2503 H   0  0  0  0  0  0  0  0  0  0  0  0
   -1.7692    2.6703   -0.3819 H   0  0  0  0  0  0  0  0  0  0  0  0
  1  2  1  0  0  0  0
  2  4  1  0  0  0  0
  2  3  2  0  0  0  0
  4  8  1  0  0  0  0
  5  6  1  0  0  0  0
  5  4  2  0  0  0  0
  6  7  1  0  0  0  0
  7  8  2  0  0  0  0
  7 15  1  0  0  0  0
  8  9  1  0  0  0  0
  9 18  1  0  0  0  0
  9 17  1  0  0  0  0
 10 19  1  6  0  0  0
 10 11  1  0  0  0  0
 10  9  1  0  0  0  0
 11 21  1  0  0  0  0
 12 10  1  0  0  0  0
 12 14  1  0  0  0  0
 13 12  2  0  0  0  0
 14 22  1  0  0  0  0
 15 23  1  0  0  0  0
 15 24  1  0  0  0  0
 16  1  1  0  0  0  0
 20 11  1  0  0  0  0
 25 15  1  0  0  0  0
M  END
