60.7237
 OpenBabel10231816213D

 36 36  0  0  1  0  0  0  0  0999 V2000
    4.3733    1.6118   -0.4046 C   0  0  0  0  0  0  0  0  0  0  0  0
    4.1827    0.2419   -0.9791 C   0  0  0  0  0  0  0  0  0  0  0  0
    3.9809    0.4706    0.4914 C   0  0  0  0  0  0  0  0  0  0  0  0
    2.6510    0.4890    1.0782 N   0  0  0  0  0  0  0  0  0  0  0  0
    1.9795   -0.8126    1.1477 C   0  0  0  0  0  0  0  0  0  0  0  0
    0.4281   -0.7150    1.2824 C   0  0  0  0  0  0  0  0  0  0  0  0
   -0.3048   -0.4452   -0.0902 C   0  0  1  0  0  0  0  0  0  0  0  0
   -0.3054   -1.6881   -0.9061 N   0  0  0  0  0  0  0  0  0  0  0  0
   -1.7668    0.0197    0.1456 C   0  0  0  0  0  0  0  0  0  0  0  0
   -2.5023    0.4483   -1.1302 C   0  0  0  0  0  0  0  0  0  0  0  0
   -3.8653    1.0845   -0.8409 C   0  0  0  0  0  0  0  0  0  0  0  0
   -4.8738    0.1041   -0.2606 C   0  0  0  0  0  0  0  0  0  0  0  0
    0.0704    0.2884    2.2168 O   0  0  0  0  0  0  0  0  0  0  0  0
   -0.0599   -1.9414    1.8252 O   0  0  0  0  0  0  0  0  0  0  0  0
    5.3840    1.9966   -0.3161 H   0  0  0  0  0  0  0  0  0  0  0  0
    3.6363    2.3699   -0.6434 H   0  0  0  0  0  0  0  0  0  0  0  0
    5.0679   -0.3043   -1.2849 H   0  0  0  0  0  0  0  0  0  0  0  0
    3.3159    0.0675   -1.6043 H   0  0  0  0  0  0  0  0  0  0  0  0
    4.7560    0.0848    1.1523 H   0  0  0  0  0  0  0  0  0  0  0  0
    2.0318    1.2084    0.7099 H   0  0  0  0  0  0  0  0  0  0  0  0
    2.2190   -1.4306    0.2729 H   0  0  0  0  0  0  0  0  0  0  0  0
    2.3800   -1.3534    2.0132 H   0  0  0  0  0  0  0  0  0  0  0  0
    0.2158    0.3503   -0.6314 H   0  0  0  0  0  0  0  0  0  0  0  0
   -0.9709   -1.5999   -1.6716 H   0  0  0  0  0  0  0  0  0  0  0  0
    0.6065   -1.7830   -1.3573 H   0  0  0  0  0  0  0  0  0  0  0  0
   -2.3260   -0.7749    0.6527 H   0  0  0  0  0  0  0  0  0  0  0  0
   -1.7633    0.8835    0.8221 H   0  0  0  0  0  0  0  0  0  0  0  0
   -2.6465   -0.4035   -1.8027 H   0  0  0  0  0  0  0  0  0  0  0  0
   -1.8881    1.1818   -1.6678 H   0  0  0  0  0  0  0  0  0  0  0  0
   -4.2692    1.4855   -1.7779 H   0  0  0  0  0  0  0  0  0  0  0  0
   -3.7464    1.9329   -0.1571 H   0  0  0  0  0  0  0  0  0  0  0  0
   -5.8483    0.5906   -0.1464 H   0  0  0  0  0  0  0  0  0  0  0  0
   -5.0026   -0.7611   -0.9185 H   0  0  0  0  0  0  0  0  0  0  0  0
   -4.5663   -0.2549    0.7258 H   0  0  0  0  0  0  0  0  0  0  0  0
   -0.1417   -0.2326    3.0108 H   0  0  0  0  0  0  0  0  0  0  0  0
   -0.4315   -2.4099    1.0439 H   0  0  0  0  0  0  0  0  0  0  0  0
  1 15  1  0  0  0  0
  1  3  1  0  0  0  0
  2  1  1  0  0  0  0
  2  3  1  0  0  0  0
  3  4  1  0  0  0  0
  3 19  1  0  0  0  0
  4  5  1  0  0  0  0
  5  6  1  0  0  0  0
  5 22  1  0  0  0  0
  6 14  1  0  0  0  0
  6 13  1  0  0  0  0
  7 23  1  6  0  0  0
  7  9  1  0  0  0  0
  7  6  1  0  0  0  0
  8  7  1  0  0  0  0
  9 26  1  0  0  0  0
  9 27  1  0  0  0  0
 10 11  1  0  0  0  0
 10  9  1  0  0  0  0
 11 12  1  0  0  0  0
 11 31  1  0  0  0  0
 12 32  1  0  0  0  0
 12 34  1  0  0  0  0
 13 35  1  0  0  0  0
 16  1  1  0  0  0  0
 17  2  1  0  0  0  0
 18  2  1  0  0  0  0
 20  4  1  0  0  0  0
 21  5  1  0  0  0  0
 24  8  1  0  0  0  0
 25  8  1  0  0  0  0
 28 10  1  0  0  0  0
 29 10  1  0  0  0  0
 30 11  1  0  0  0  0
 33 12  1  0  0  0  0
 36 14  1  0  0  0  0
M  END
