40.7306
 OpenBabel10231816213D

 25 25  0  0  1  0  0  0  0  0999 V2000
   -1.4989   -3.7770   -0.4701 O   0  0  0  0  0  0  0  0  0  0  0  0
   -0.7216   -2.6698   -0.6201 C   0  0  0  0  0  0  0  0  0  0  0  0
    0.4474   -2.7390   -0.9720 O   0  0  0  0  0  0  0  0  0  0  0  0
   -1.4169   -1.4179   -0.3225 C   0  0  0  0  0  0  0  0  0  0  0  0
   -2.7091   -1.4319    0.0526 N   0  0  0  0  0  0  0  0  0  0  0  0
   -3.0505   -0.1087    0.2725 O   0  0  0  0  0  0  0  0  0  0  0  0
   -1.9793    0.6883    0.0233 C   0  0  0  0  0  0  0  0  0  0  0  0
   -0.9081   -0.0879   -0.3607 C   0  0  0  0  0  0  0  0  0  0  0  0
    0.4755    0.3586   -0.6961 C   0  0  0  0  0  0  0  0  0  0  0  0
    1.4818    0.0756    0.4293 C   0  0  2  0  0  0  0  0  0  0  0  0
    1.1445    0.8427    1.6586 N   0  0  0  0  0  0  0  0  0  0  0  0
    2.8800    0.4465   -0.0624 C   0  0  0  0  0  0  0  0  0  0  0  0
    3.5494    1.3939    0.3170 O   0  0  0  0  0  0  0  0  0  0  0  0
    3.3502   -0.3988   -0.9984 O   0  0  0  0  0  0  0  0  0  0  0  0
   -2.1674    2.1374    0.2332 C   0  0  0  0  0  0  0  0  0  0  0  0
   -2.3949   -3.4890   -0.1799 H   0  0  0  0  0  0  0  0  0  0  0  0
    0.7893   -0.1328   -1.6256 H   0  0  0  0  0  0  0  0  0  0  0  0
    0.4773    1.4321   -0.9287 H   0  0  0  0  0  0  0  0  0  0  0  0
    1.4887   -0.9859    0.7043 H   0  0  0  0  0  0  0  0  0  0  0  0
    1.3830    1.8241    1.4963 H   0  0  0  0  0  0  0  0  0  0  0  0
    1.7783    0.5478    2.4034 H   0  0  0  0  0  0  0  0  0  0  0  0
    4.2469   -0.0687   -1.2183 H   0  0  0  0  0  0  0  0  0  0  0  0
   -1.3781    2.7128   -0.2589 H   0  0  0  0  0  0  0  0  0  0  0  0
   -2.1422    2.3765    1.3006 H   0  0  0  0  0  0  0  0  0  0  0  0
   -3.1253    2.4711   -0.1774 H   0  0  0  0  0  0  0  0  0  0  0  0
  1 16  1  0  0  0  0
  2  1  1  0  0  0  0
  2  4  1  0  0  0  0
  3  2  2  0  0  0  0
  4  5  2  0  0  0  0
  5  6  1  0  0  0  0
  7 15  1  0  0  0  0
  7  6  1  0  0  0  0
  8  4  1  0  0  0  0
  8  7  2  0  0  0  0
  9  8  1  0  0  0  0
  9 10  1  0  0  0  0
 10 19  1  1  0  0  0
 10 11  1  0  0  0  0
 11 21  1  0  0  0  0
 12 13  2  0  0  0  0
 12 10  1  0  0  0  0
 14 12  1  0  0  0  0
 15 24  1  0  0  0  0
 17  9  1  0  0  0  0
 18  9  1  0  0  0  0
 20 11  1  0  0  0  0
 22 14  1  0  0  0  0
 23 15  1  0  0  0  0
 25 15  1  0  0  0  0
M  END
