3.35812
 OpenBabel10231816213D

 66 68  0  0  1  0  0  0  0  0999 V2000
    0.5859    0.6524   -0.5571 C   0  0  2  0  0  0  0  0  0  0  0  0
    0.4447    0.0438   -1.9642 C   0  0  0  0  0  0  0  0  0  0  0  0
   -0.4709   -1.1592   -1.9013 C   0  0  0  0  0  0  0  0  0  0  0  0
   -0.0564   -2.3003   -1.2150 C   0  0  0  0  0  0  0  0  0  0  0  0
   -0.9583   -3.3292   -0.9363 C   0  0  0  0  0  0  0  0  0  0  0  0
   -2.2881   -3.2193   -1.3352 C   0  0  0  0  0  0  0  0  0  0  0  0
   -2.6875   -2.1351   -2.1061 C   0  0  0  0  0  0  0  0  0  0  0  0
   -1.7861   -1.0998   -2.3789 C   0  0  0  0  0  0  0  0  0  0  0  0
   -3.1198   -4.2386   -0.9764 O   0  0  0  0  0  0  0  0  0  0  0  0
   -4.3719   -3.8632   -0.3864 C   0  0  0  0  0  0  0  0  0  0  0  0
   -4.2508   -3.2191    1.0124 C   0  0  0  0  0  0  0  0  0  0  0  0
   -4.6109   -1.7261    1.0494 C   0  0  0  0  0  0  0  0  0  0  0  0
   -3.4364   -0.7914    0.7819 C   0  0  0  0  0  0  0  0  0  0  0  0
   -2.3091   -0.9875    1.2215 O   0  0  0  0  0  0  0  0  0  0  0  0
   -3.7930    0.3610    0.1070 N   0  0  0  0  0  0  0  0  0  0  0  0
   -3.0415    1.6140    0.2327 C   0  0  2  0  0  0  0  0  0  0  0  0
   -1.7360    1.6129   -0.5705 C   0  0  0  0  0  0  0  0  0  0  0  0
   -1.6905    2.1029   -1.6951 O   0  0  0  0  0  0  0  0  0  0  0  0
   -0.7053    0.9586    0.0631 N   0  0  0  0  0  0  0  0  0  0  0  0
   -2.8405    2.0195    1.6917 C   0  0  0  0  0  0  0  0  0  0  0  0
   -4.1776    2.1347    2.3801 C   0  0  0  0  0  0  0  0  0  0  0  0
   -4.8263    1.1574    2.7652 O   0  0  0  0  0  0  0  0  0  0  0  0
   -4.6867    3.3910    2.4892 N   0  0  0  0  0  0  0  0  0  0  0  0
    1.5460    1.8465   -0.5088 C   0  0  2  0  0  0  0  0  0  0  0  0
    1.2814    2.7410   -1.5849 O   0  0  0  0  0  0  0  0  0  0  0  0
    3.0167    1.4015   -0.5783 C   0  0  0  0  0  0  0  0  0  0  0  0
    3.8869    2.5924   -0.5189 N   0  0  0  0  0  0  0  0  0  0  0  0
    5.5146    2.4255   -0.9102 S   0  0  0  0  0  0  0  0  0  0  0  0
    5.6215    2.1486   -2.3128 O   0  0  0  0  0  0  0  0  0  0  0  0
    6.1618    3.5849   -0.2987 O   0  0  0  0  0  0  0  0  0  0  0  0
    6.0228    0.9836   -0.0104 C   0  0  0  0  0  0  0  0  0  0  0  0
    5.8879   -0.2717   -0.6058 C   0  0  0  0  0  0  0  0  0  0  0  0
    6.2637   -1.4138    0.1019 C   0  0  0  0  0  0  0  0  0  0  0  0
    6.7958   -1.2967    1.3870 C   0  0  0  0  0  0  0  0  0  0  0  0
    6.9545   -0.0365    1.9657 C   0  0  0  0  0  0  0  0  0  0  0  0
    6.5731    1.1080    1.2637 C   0  0  0  0  0  0  0  0  0  0  0  0
    1.0064   -0.1051    0.1162 H   0  0  0  0  0  0  0  0  0  0  0  0
    0.0582    0.7875   -2.6687 H   0  0  0  0  0  0  0  0  0  0  0  0
    1.4315   -0.2583   -2.3356 H   0  0  0  0  0  0  0  0  0  0  0  0
    0.9665   -2.3656   -0.8599 H   0  0  0  0  0  0  0  0  0  0  0  0
   -0.6305   -4.1984   -0.3759 H   0  0  0  0  0  0  0  0  0  0  0  0
   -3.6983   -2.0810   -2.4890 H   0  0  0  0  0  0  0  0  0  0  0  0
   -2.1285   -0.2218   -2.9232 H   0  0  0  0  0  0  0  0  0  0  0  0
   -4.8975   -4.8239   -0.2870 H   0  0  0  0  0  0  0  0  0  0  0  0
   -4.9782   -3.2513   -1.0629 H   0  0  0  0  0  0  0  0  0  0  0  0
   -4.9625   -3.7355    1.6732 H   0  0  0  0  0  0  0  0  0  0  0  0
   -3.2519   -3.3780    1.4287 H   0  0  0  0  0  0  0  0  0  0  0  0
   -5.4404   -1.5022    0.3695 H   0  0  0  0  0  0  0  0  0  0  0  0
   -4.9574   -1.4650    2.0620 H   0  0  0  0  0  0  0  0  0  0  0  0
   -4.7782    0.4968   -0.0551 H   0  0  0  0  0  0  0  0  0  0  0  0
   -3.6605    2.3765   -0.2569 H   0  0  0  0  0  0  0  0  0  0  0  0
   -1.0312    0.2597    0.7347 H   0  0  0  0  0  0  0  0  0  0  0  0
   -2.2834    2.9619    1.7658 H   0  0  0  0  0  0  0  0  0  0  0  0
   -2.2618    1.2623    2.2288 H   0  0  0  0  0  0  0  0  0  0  0  0
   -4.1522    4.2179    2.2609 H   0  0  0  0  0  0  0  0  0  0  0  0
   -5.5675    3.5130    2.9780 H   0  0  0  0  0  0  0  0  0  0  0  0
    1.3902    2.3875    0.4342 H   0  0  0  0  0  0  0  0  0  0  0  0
    2.0409    3.3496   -1.6287 H   0  0  0  0  0  0  0  0  0  0  0  0
    3.2074    0.8682   -1.5119 H   0  0  0  0  0  0  0  0  0  0  0  0
    3.2495    0.7540    0.2709 H   0  0  0  0  0  0  0  0  0  0  0  0
    3.8110    3.1525    0.3259 H   0  0  0  0  0  0  0  0  0  0  0  0
    5.4846   -0.3571   -1.6120 H   0  0  0  0  0  0  0  0  0  0  0  0
    6.1474   -2.3950   -0.3521 H   0  0  0  0  0  0  0  0  0  0  0  0
    7.0931   -2.1893    1.9341 H   0  0  0  0  0  0  0  0  0  0  0  0
    7.3762    0.0569    2.9644 H   0  0  0  0  0  0  0  0  0  0  0  0
    6.7039    2.0907    1.7102 H   0  0  0  0  0  0  0  0  0  0  0  0
  1 24  1  0  0  0  0
  1 19  1  0  0  0  0
  1 37  1  1  0  0  0
  2  3  1  0  0  0  0
  2  1  1  0  0  0  0
  3  4  2  0  0  0  0
  4  5  1  0  0  0  0
  4 40  1  0  0  0  0
  5 41  1  0  0  0  0
  6  9  1  0  0  0  0
  6  5  2  0  0  0  0
  7  6  1  0  0  0  0
  8  7  2  0  0  0  0
  8  3  1  0  0  0  0
  9 10  1  0  0  0  0
 10 44  1  0  0  0  0
 10 11  1  0  0  0  0
 11 12  1  0  0  0  0
 11 47  1  0  0  0  0
 11 46  1  0  0  0  0
 12 49  1  0  0  0  0
 13 12  1  0  0  0  0
 13 14  2  0  0  0  0
 15 16  1  0  0  0  0
 15 13  1  0  0  0  0
 16 51  1  6  0  0  0
 16 20  1  0  0  0  0
 17 19  1  0  0  0  0
 17 16  1  0  0  0  0
 18 17  2  0  0  0  0
 19 52  1  0  0  0  0
 20 53  1  0  0  0  0
 20 54  1  0  0  0  0
 20 21  1  0  0  0  0
 21 23  1  0  0  0  0
 21 22  2  0  0  0  0
 23 56  1  0  0  0  0
 24 57  1  1  0  0  0
 25 24  1  0  0  0  0
 26 27  1  0  0  0  0
 26 24  1  0  0  0  0
 26 60  1  0  0  0  0
 27 61  1  0  0  0  0
 28 27  1  0  0  0  0
 28 30  2  0  0  0  0
 28 31  1  0  0  0  0
 29 28  2  0  0  0  0
 31 36  1  0  0  0  0
 32 31  2  0  0  0  0
 32 33  1  0  0  0  0
 33 34  2  0  0  0  0
 34 64  1  0  0  0  0
 34 35  1  0  0  0  0
 35 65  1  0  0  0  0
 36 66  1  0  0  0  0
 36 35  2  0  0  0  0
 38  2  1  0  0  0  0
 39  2  1  0  0  0  0
 42  7  1  0  0  0  0
 43  8  1  0  0  0  0
 45 10  1  0  0  0  0
 48 12  1  0  0  0  0
 50 15  1  0  0  0  0
 55 23  1  0  0  0  0
 58 25  1  0  0  0  0
 59 26  1  0  0  0  0
 62 32  1  0  0  0  0
 63 33  1  0  0  0  0
M  END
