59.3378
 OpenBabel10231816213D

 40 42  0  0  0  0  0  0  0  0999 V2000
    5.0662    3.0345    2.6277 O   0  0  0  0  0  0  0  0  0  0  0  0
    5.2953    2.1816    1.7520 C   0  0  0  0  0  0  0  0  0  0  0  0
    6.6726    1.9843    1.1946 C   0  0  0  0  0  0  0  0  0  0  0  0
    4.1776    1.3321    1.2328 C   0  0  0  0  0  0  0  0  0  0  0  0
    4.3801    0.3625    0.2467 C   0  0  0  0  0  0  0  0  0  0  0  0
    3.3027   -0.4068   -0.2081 C   0  0  0  0  0  0  0  0  0  0  0  0
    2.0179   -0.2205    0.3173 C   0  0  0  0  0  0  0  0  0  0  0  0
    1.8239    0.7474    1.3014 C   0  0  0  0  0  0  0  0  0  0  0  0
    2.8983    1.5216    1.7553 C   0  0  0  0  0  0  0  0  0  0  0  0
    0.9913   -1.0388   -0.1916 N   0  0  0  0  0  0  0  0  0  0  0  0
   -0.3323   -1.0850    0.2200 C   0  0  0  0  0  0  0  0  0  0  0  0
   -0.8233   -0.3700    1.0821 O   0  0  0  0  0  0  0  0  0  0  0  0
   -1.1352   -2.0943   -0.4924 C   0  0  0  0  0  0  0  0  0  0  0  0
   -0.7483   -3.3867   -0.9247 C   0  0  0  0  0  0  0  0  0  0  0  0
   -1.7448   -4.0854   -1.4693 N   0  0  0  0  0  0  0  0  0  0  0  0
   -2.7840   -3.2374   -1.4146 N   0  0  0  0  0  0  0  0  0  0  0  0
   -2.4848   -2.0206   -0.8544 C   0  0  0  0  0  0  0  0  0  0  0  0
   -3.4689   -0.9377   -0.7707 C   0  0  0  0  0  0  0  0  0  0  0  0
   -4.8079   -1.1919   -0.4379 C   0  0  0  0  0  0  0  0  0  0  0  0
   -5.7217   -0.1409   -0.3233 C   0  0  0  0  0  0  0  0  0  0  0  0
   -7.3590   -0.4855    0.1006 Cl  0  0  0  0  0  0  0  0  0  0  0  0
   -5.3042    1.1705   -0.5454 C   0  0  0  0  0  0  0  0  0  0  0  0
   -6.2246    2.1732   -0.4310 O   0  0  0  0  0  0  0  0  0  0  0  0
   -3.9819    1.4452   -0.9013 C   0  0  0  0  0  0  0  0  0  0  0  0
   -3.0819    0.3858   -1.0229 C   0  0  0  0  0  0  0  0  0  0  0  0
   -1.8049    0.6097   -1.4680 O   0  0  0  0  0  0  0  0  0  0  0  0
    7.0216    0.9661    1.3854 H   0  0  0  0  0  0  0  0  0  0  0  0
    7.3583    2.6827    1.6855 H   0  0  0  0  0  0  0  0  0  0  0  0
    6.6850    2.1858    0.1201 H   0  0  0  0  0  0  0  0  0  0  0  0
    5.3604    0.1836   -0.1847 H   0  0  0  0  0  0  0  0  0  0  0  0
    3.4827   -1.1597   -0.9716 H   0  0  0  0  0  0  0  0  0  0  0  0
    0.8393    0.9181    1.7244 H   0  0  0  0  0  0  0  0  0  0  0  0
    2.7406    2.2777    2.5235 H   0  0  0  0  0  0  0  0  0  0  0  0
    1.2460   -1.6373   -0.9611 H   0  0  0  0  0  0  0  0  0  0  0  0
    0.2163   -3.8727   -0.8347 H   0  0  0  0  0  0  0  0  0  0  0  0
   -3.6760   -3.5455   -1.7923 H   0  0  0  0  0  0  0  0  0  0  0  0
   -5.1465   -2.2045   -0.2444 H   0  0  0  0  0  0  0  0  0  0  0  0
   -5.8013    3.0367   -0.5715 H   0  0  0  0  0  0  0  0  0  0  0  0
   -3.6580    2.4567   -1.1123 H   0  0  0  0  0  0  0  0  0  0  0  0
   -1.4865    1.4656   -1.1411 H   0  0  0  0  0  0  0  0  0  0  0  0
  2  1  2  0  0  0  0
  3 27  1  0  0  0  0
  3 28  1  0  0  0  0
  3  2  1  0  0  0  0
  4  2  1  0  0  0  0
  4  9  2  0  0  0  0
  5  4  1  0  0  0  0
  6  5  2  0  0  0  0
  6  7  1  0  0  0  0
  7  8  2  0  0  0  0
  8 32  1  0  0  0  0
  8  9  1  0  0  0  0
  9 33  1  0  0  0  0
 10 11  1  0  0  0  0
 10  7  1  0  0  0  0
 11 12  2  0  0  0  0
 13 11  1  0  0  0  0
 14 35  1  0  0  0  0
 14 13  1  0  0  0  0
 15 16  1  0  0  0  0
 15 14  2  0  0  0  0
 16 17  1  0  0  0  0
 17 18  1  0  0  0  0
 17 13  2  0  0  0  0
 18 19  2  0  0  0  0
 19 20  1  0  0  0  0
 19 37  1  0  0  0  0
 20 21  1  0  0  0  0
 22 23  1  0  0  0  0
 22 20  2  0  0  0  0
 24 22  1  0  0  0  0
 25 24  2  0  0  0  0
 25 18  1  0  0  0  0
 26 40  1  0  0  0  0
 26 25  1  0  0  0  0
 29  3  1  0  0  0  0
 30  5  1  0  0  0  0
 31  6  1  0  0  0  0
 34 10  1  0  0  0  0
 36 16  1  0  0  0  0
 38 23  1  0  0  0  0
 39 24  1  0  0  0  0
M  END
