124.173
 OpenBabel10231816213D

 34 35  0  0  1  0  0  0  0  0999 V2000
   -0.7785   -0.2440   -0.3155 C   0  0  1  0  0  0  0  0  0  0  0  0
   -0.3552    0.6683    0.7881 N   0  0  0  0  0  0  0  0  0  0  0  0
    0.8713    0.2146    1.4618 C   0  0  0  0  0  0  0  0  0  0  0  0
    2.1074    0.2638    0.5938 C   0  0  0  0  0  0  0  0  0  0  0  0
    2.8035   -0.9197    0.2948 C   0  0  0  0  0  0  0  0  0  0  0  0
    3.9415   -0.8870   -0.5103 C   0  0  0  0  0  0  0  0  0  0  0  0
    4.3975    0.3201   -1.0300 C   0  0  0  0  0  0  0  0  0  0  0  0
    3.7135    1.5011   -0.7402 C   0  0  0  0  0  0  0  0  0  0  0  0
    2.5806    1.4741    0.0709 C   0  0  0  0  0  0  0  0  0  0  0  0
   -1.6709   -1.4055    0.1930 C   0  0  1  0  0  0  0  0  0  0  0  0
   -1.1439   -2.1192    1.3034 O   0  0  0  0  0  0  0  0  0  0  0  0
   -2.9760   -0.6859    0.5446 C   0  0  1  0  0  0  0  0  0  0  0  0
   -2.8357    0.0134    1.7980 O   0  0  0  0  0  0  0  0  0  0  0  0
   -3.1668    0.3146   -0.6121 C   0  0  1  0  0  0  0  0  0  0  0  0
   -3.7011    1.5517   -0.1369 O   0  0  0  0  0  0  0  0  0  0  0  0
   -1.7662    0.5244   -1.2378 C   0  0  2  0  0  0  0  0  0  0  0  0
   -1.6787   -0.0662   -2.9764 S   0  0  0  0  0  0  0  0  0  0  0  0
    0.0913   -0.6125   -0.8683 H   0  0  0  0  0  0  0  0  0  0  0  0
   -0.1566    1.5912    0.3929 H   0  0  0  0  0  0  0  0  0  0  0  0
    1.0385    0.8674    2.3266 H   0  0  0  0  0  0  0  0  0  0  0  0
    0.7374   -0.7862    1.8809 H   0  0  0  0  0  0  0  0  0  0  0  0
    2.4561   -1.8738    0.6843 H   0  0  0  0  0  0  0  0  0  0  0  0
    4.4742   -1.8104   -0.7340 H   0  0  0  0  0  0  0  0  0  0  0  0
    5.2812    0.3445   -1.6613 H   0  0  0  0  0  0  0  0  0  0  0  0
    4.0721    2.4452   -1.1460 H   0  0  0  0  0  0  0  0  0  0  0  0
    2.0640    2.4074    0.2884 H   0  0  0  0  0  0  0  0  0  0  0  0
   -1.8306   -2.1288   -0.6140 H   0  0  0  0  0  0  0  0  0  0  0  0
   -1.5493   -1.7306    2.1037 H   0  0  0  0  0  0  0  0  0  0  0  0
   -3.8180   -1.3742    0.6525 H   0  0  0  0  0  0  0  0  0  0  0  0
   -1.9461    0.4404    1.7776 H   0  0  0  0  0  0  0  0  0  0  0  0
   -3.8771   -0.0893   -1.3410 H   0  0  0  0  0  0  0  0  0  0  0  0
   -3.6897    1.4989    0.8414 H   0  0  0  0  0  0  0  0  0  0  0  0
   -1.5125    1.5877   -1.2899 H   0  0  0  0  0  0  0  0  0  0  0  0
   -2.1772   -1.2955   -2.7830 H   0  0  0  0  0  0  0  0  0  0  0  0
  1 18  1  6  0  0  0
  1 10  1  0  0  0  0
  1  2  1  0  0  0  0
  2  3  1  0  0  0  0
  3 21  1  0  0  0  0
  3 20  1  0  0  0  0
  4  3  1  0  0  0  0
  5  4  1  0  0  0  0
  5 22  1  0  0  0  0
  6  5  2  0  0  0  0
  7  8  2  0  0  0  0
  7  6  1  0  0  0  0
  8  9  1  0  0  0  0
  9 26  1  0  0  0  0
  9  4  2  0  0  0  0
 10 27  1  6  0  0  0
 10 12  1  0  0  0  0
 10 11  1  0  0  0  0
 11 28  1  0  0  0  0
 12 29  1  1  0  0  0
 12 13  1  0  0  0  0
 14 31  1  6  0  0  0
 14 15  1  0  0  0  0
 14 12  1  0  0  0  0
 15 32  1  0  0  0  0
 16 33  1  1  0  0  0
 16 14  1  0  0  0  0
 16  1  1  0  0  0  0
 17 34  1  0  0  0  0
 17 16  1  0  0  0  0
 19  2  1  0  0  0  0
 23  6  1  0  0  0  0
 24  7  1  0  0  0  0
 25  8  1  0  0  0  0
 30 13  1  0  0  0  0
M  END
