123.322
 OpenBabel10231816213D

 34 35  0  0  1  0  0  0  0  0999 V2000
   -1.2896   -0.9702   -0.4248 C   0  0  1  0  0  0  0  0  0  0  0  0
    0.0551   -0.6149    0.0835 N   0  0  0  0  0  0  0  0  0  0  0  0
    1.0022   -0.3274   -0.9987 C   0  0  0  0  0  0  0  0  0  0  0  0
    2.3335    0.1480   -0.4564 C   0  0  0  0  0  0  0  0  0  0  0  0
    2.8861   -0.4058    0.7092 C   0  0  0  0  0  0  0  0  0  0  0  0
    4.1246    0.0234    1.1887 C   0  0  0  0  0  0  0  0  0  0  0  0
    4.8361    1.0024    0.5000 C   0  0  0  0  0  0  0  0  0  0  0  0
    4.3094    1.5511   -0.6674 C   0  0  0  0  0  0  0  0  0  0  0  0
    3.0678    1.1244   -1.1462 C   0  0  0  0  0  0  0  0  0  0  0  0
   -2.1127   -1.6072    0.7350 C   0  0  1  0  0  0  0  0  0  0  0  0
   -1.2758   -2.1041    1.7833 O   0  0  0  0  0  0  0  0  0  0  0  0
   -2.9926   -0.4708    1.2459 C   0  0  1  0  0  0  0  0  0  0  0  0
   -2.1872    0.4245    2.0279 O   0  0  0  0  0  0  0  0  0  0  0  0
   -3.4398    0.1786   -0.0627 C   0  0  1  0  0  0  0  0  0  0  0  0
   -4.0406    1.4488    0.1745 O   0  0  0  0  0  0  0  0  0  0  0  0
   -2.1302    0.2637   -0.8686 C   0  0  2  0  0  0  0  0  0  0  0  0
   -2.4267    0.2641   -2.6716 S   0  0  0  0  0  0  0  0  0  0  0  0
   -1.1875   -1.7293   -1.2105 H   0  0  0  0  0  0  0  0  0  0  0  0
   -0.0274    0.2258    0.6677 H   0  0  0  0  0  0  0  0  0  0  0  0
    1.1768   -1.2321   -1.5924 H   0  0  0  0  0  0  0  0  0  0  0  0
    0.5965    0.4428   -1.6655 H   0  0  0  0  0  0  0  0  0  0  0  0
    2.3455   -1.1742    1.2576 H   0  0  0  0  0  0  0  0  0  0  0  0
    4.5305   -0.4103    2.0987 H   0  0  0  0  0  0  0  0  0  0  0  0
    5.8025    1.3344    0.8706 H   0  0  0  0  0  0  0  0  0  0  0  0
    4.8682    2.3101   -1.2089 H   0  0  0  0  0  0  0  0  0  0  0  0
    2.6789    1.5623   -2.0628 H   0  0  0  0  0  0  0  0  0  0  0  0
   -2.7220   -2.4361    0.3563 H   0  0  0  0  0  0  0  0  0  0  0  0
   -0.3620   -1.9269    1.4672 H   0  0  0  0  0  0  0  0  0  0  0  0
   -3.8280   -0.8065    1.8666 H   0  0  0  0  0  0  0  0  0  0  0  0
   -1.7079   -0.1552    2.6513 H   0  0  0  0  0  0  0  0  0  0  0  0
   -4.1812   -0.4668   -0.5547 H   0  0  0  0  0  0  0  0  0  0  0  0
   -4.4410    1.7507   -0.6602 H   0  0  0  0  0  0  0  0  0  0  0  0
   -1.6123    1.2023   -0.6378 H   0  0  0  0  0  0  0  0  0  0  0  0
   -2.6492    1.5805   -2.7948 H   0  0  0  0  0  0  0  0  0  0  0  0
  1 18  1  6  0  0  0
  1  2  1  0  0  0  0
  1 10  1  0  0  0  0
  2 19  1  0  0  0  0
  3  4  1  0  0  0  0
  3  2  1  0  0  0  0
  4  5  2  0  0  0  0
  5  6  1  0  0  0  0
  5 22  1  0  0  0  0
  6 23  1  0  0  0  0
  7 24  1  0  0  0  0
  7  6  2  0  0  0  0
  8  7  1  0  0  0  0
  9  8  2  0  0  0  0
  9  4  1  0  0  0  0
 10 27  1  6  0  0  0
 10 12  1  0  0  0  0
 10 11  1  0  0  0  0
 12 29  1  1  0  0  0
 12 13  1  0  0  0  0
 13 30  1  0  0  0  0
 14 31  1  6  0  0  0
 14 15  1  0  0  0  0
 14 12  1  0  0  0  0
 16 33  1  1  0  0  0
 16  1  1  0  0  0  0
 16 14  1  0  0  0  0
 17 16  1  0  0  0  0
 20  3  1  0  0  0  0
 21  3  1  0  0  0  0
 25  8  1  0  0  0  0
 26  9  1  0  0  0  0
 28 11  1  0  0  0  0
 32 15  1  0  0  0  0
 34 17  1  0  0  0  0
M  END
