66.1113
 OpenBabel10231816213D

 36 36  0  0  1  0  0  0  0  0999 V2000
    4.7425    0.6405    0.5550 C   0  0  0  0  0  0  0  0  0  0  0  0
    3.7763    1.0430    1.6351 C   0  0  0  0  0  0  0  0  0  0  0  0
    3.4647    1.3359    0.1950 C   0  0  0  0  0  0  0  0  0  0  0  0
    2.3966    0.6467   -0.5232 N   0  0  0  0  0  0  0  0  0  0  0  0
    2.0684   -0.7206   -0.1269 C   0  0  0  0  0  0  0  0  0  0  0  0
    0.6627   -0.7590    0.4979 C   0  0  0  0  0  0  0  0  0  0  0  0
   -0.4131   -0.6789   -0.6161 C   0  0  1  0  0  0  0  0  0  0  0  0
   -0.3971   -1.9797   -1.3503 N   0  0  0  0  0  0  0  0  0  0  0  0
   -1.7923   -0.3625   -0.0044 C   0  0  0  0  0  0  0  0  0  0  0  0
   -2.8956   -0.1762   -1.0433 C   0  0  0  0  0  0  0  0  0  0  0  0
   -4.2808    0.0627   -0.4275 C   0  0  0  0  0  0  0  0  0  0  0  0
   -4.4200    1.4062    0.2825 C   0  0  0  0  0  0  0  0  0  0  0  0
    0.5225    0.3318    1.4095 O   0  0  0  0  0  0  0  0  0  0  0  0
    0.5150   -1.9780    1.2351 O   0  0  0  0  0  0  0  0  0  0  0  0
    5.6708    1.2019    0.4693 H   0  0  0  0  0  0  0  0  0  0  0  0
    4.8636   -0.4107    0.3294 H   0  0  0  0  0  0  0  0  0  0  0  0
    3.2097    0.2767    2.1519 H   0  0  0  0  0  0  0  0  0  0  0  0
    4.0246    1.8816    2.2725 H   0  0  0  0  0  0  0  0  0  0  0  0
    3.5471    2.3824   -0.0965 H   0  0  0  0  0  0  0  0  0  0  0  0
    2.5632    0.6916   -1.5345 H   0  0  0  0  0  0  0  0  0  0  0  0
    2.1140   -1.3876   -1.0021 H   0  0  0  0  0  0  0  0  0  0  0  0
    2.7793   -1.1404    0.5813 H   0  0  0  0  0  0  0  0  0  0  0  0
   -0.1535    0.1271   -1.3127 H   0  0  0  0  0  0  0  0  0  0  0  0
   -0.5307   -1.8103   -2.3473 H   0  0  0  0  0  0  0  0  0  0  0  0
   -1.1956   -2.5326   -1.0390 H   0  0  0  0  0  0  0  0  0  0  0  0
   -1.7122    0.5553    0.5937 H   0  0  0  0  0  0  0  0  0  0  0  0
   -2.0618   -1.1652    0.6971 H   0  0  0  0  0  0  0  0  0  0  0  0
   -2.6410    0.6544   -1.7047 H   0  0  0  0  0  0  0  0  0  0  0  0
   -2.9536   -1.0746   -1.6711 H   0  0  0  0  0  0  0  0  0  0  0  0
   -4.5180   -0.7457    0.2712 H   0  0  0  0  0  0  0  0  0  0  0  0
   -5.0307    0.0117   -1.2277 H   0  0  0  0  0  0  0  0  0  0  0  0
   -5.4394    1.5373    0.6654 H   0  0  0  0  0  0  0  0  0  0  0  0
   -4.2113    2.2394   -0.3963 H   0  0  0  0  0  0  0  0  0  0  0  0
   -3.7397    1.4845    1.1360 H   0  0  0  0  0  0  0  0  0  0  0  0
    0.9404    1.0754    0.9093 H   0  0  0  0  0  0  0  0  0  0  0  0
    0.5248   -2.6639    0.5365 H   0  0  0  0  0  0  0  0  0  0  0  0
  1  2  1  0  0  0  0
  2 17  1  0  0  0  0
  2 18  1  0  0  0  0
  3  1  1  0  0  0  0
  3  2  1  0  0  0  0
  4  5  1  0  0  0  0
  4  3  1  0  0  0  0
  5  6  1  0  0  0  0
  5 22  1  0  0  0  0
  6 14  1  0  0  0  0
  6 13  1  0  0  0  0
  7 23  1  6  0  0  0
  7  9  1  0  0  0  0
  7  6  1  0  0  0  0
  8 25  1  0  0  0  0
  8  7  1  0  0  0  0
  9 26  1  0  0  0  0
  9 27  1  0  0  0  0
 10 11  1  0  0  0  0
 10  9  1  0  0  0  0
 11 30  1  0  0  0  0
 11 12  1  0  0  0  0
 12 32  1  0  0  0  0
 12 34  1  0  0  0  0
 15  1  1  0  0  0  0
 16  1  1  0  0  0  0
 19  3  1  0  0  0  0
 20  4  1  0  0  0  0
 21  5  1  0  0  0  0
 24  8  1  0  0  0  0
 28 10  1  0  0  0  0
 29 10  1  0  0  0  0
 31 11  1  0  0  0  0
 33 12  1  0  0  0  0
 35 13  1  0  0  0  0
 36 14  1  0  0  0  0
M  END
