38.1157
 OpenBabel10231816213D

 61 65  0  0  0  0  0  0  0  0999 V2000
    8.5608    1.8699    0.9543 N   0  0  0  0  0  0  0  0  0  0  0  0
    7.5293    1.5920    1.7787 C   0  0  0  0  0  0  0  0  0  0  0  0
    6.2919    1.1519    1.3450 C   0  0  0  0  0  0  0  0  0  0  0  0
    6.0503    0.9875   -0.0238 C   0  0  0  0  0  0  0  0  0  0  0  0
    7.1089    1.2911   -0.8838 C   0  0  0  0  0  0  0  0  0  0  0  0
    8.3231    1.7067   -0.3631 C   0  0  0  0  0  0  0  0  0  0  0  0
    4.8175    0.5644   -0.5032 N   0  0  0  0  0  0  0  0  0  0  0  0
    4.6919   -0.0669   -1.8169 C   0  0  0  0  0  0  0  0  0  0  0  0
    3.6780   -1.2021   -1.7527 C   0  0  0  0  0  0  0  0  0  0  0  0
    2.2822   -0.7232   -1.3017 C   0  0  0  0  0  0  0  0  0  0  0  0
    2.3878    0.5887   -0.5105 C   0  0  0  0  0  0  0  0  0  0  0  0
    3.6419    0.5815    0.3585 C   0  0  0  0  0  0  0  0  0  0  0  0
    1.6119   -1.7849   -0.4441 C   0  0  0  0  0  0  0  0  0  0  0  0
    2.2872   -2.5451    0.2765 O   0  0  0  0  0  0  0  0  0  0  0  0
    0.2381   -1.8716   -0.4539 N   0  0  0  0  0  0  0  0  0  0  0  0
   -0.6924   -0.8114   -0.8834 C   0  0  0  0  0  0  0  0  0  0  0  0
   -1.3451   -0.1397    0.3342 C   0  0  0  0  0  0  0  0  0  0  0  0
   -1.9740   -1.1692    1.1952 N   0  0  0  0  0  0  0  0  0  0  0  0
   -1.0237   -2.2350    1.6284 C   0  0  0  0  0  0  0  0  0  0  0  0
   -0.4036   -2.8822    0.3858 C   0  0  0  0  0  0  0  0  0  0  0  0
   -2.9824   -0.6187    2.4305 S   0  0  0  0  0  0  0  0  0  0  0  0
   -2.2500    0.4009    3.1665 O   0  0  0  0  0  0  0  0  0  0  0  0
   -3.5214   -1.7794    3.0868 O   0  0  0  0  0  0  0  0  0  0  0  0
   -4.2741    0.1658    1.5148 C   0  0  0  0  0  0  0  0  0  0  0  0
   -5.0397   -0.5727    0.6035 C   0  0  0  0  0  0  0  0  0  0  0  0
   -6.0583    0.0586   -0.1236 C   0  0  0  0  0  0  0  0  0  0  0  0
   -6.3025    1.4493    0.0582 C   0  0  0  0  0  0  0  0  0  0  0  0
   -5.5058    2.1677    0.9632 C   0  0  0  0  0  0  0  0  0  0  0  0
   -4.4902    1.5266    1.6832 C   0  0  0  0  0  0  0  0  0  0  0  0
   -7.3262    2.0737   -0.6660 C   0  0  0  0  0  0  0  0  0  0  0  0
   -8.1051    1.3333   -1.5646 C   0  0  0  0  0  0  0  0  0  0  0  0
   -7.8709   -0.0215   -1.7481 C   0  0  0  0  0  0  0  0  0  0  0  0
   -6.8526   -0.6591   -1.0324 C   0  0  0  0  0  0  0  0  0  0  0  0
   -9.3579    2.1121   -2.4480 Cl  0  0  0  0  0  0  0  0  0  0  0  0
    7.7318    1.7265    2.8365 H   0  0  0  0  0  0  0  0  0  0  0  0
    5.5310    0.9371    2.0862 H   0  0  0  0  0  0  0  0  0  0  0  0
    7.0030    1.2228   -1.9603 H   0  0  0  0  0  0  0  0  0  0  0  0
    9.1593    1.9391   -1.0157 H   0  0  0  0  0  0  0  0  0  0  0  0
    5.6488   -0.4840   -2.1445 H   0  0  0  0  0  0  0  0  0  0  0  0
    4.3780    0.6840   -2.5517 H   0  0  0  0  0  0  0  0  0  0  0  0
    4.0604   -1.9602   -1.0567 H   0  0  0  0  0  0  0  0  0  0  0  0
    3.6075   -1.6995   -2.7268 H   0  0  0  0  0  0  0  0  0  0  0  0
    1.6690   -0.5663   -2.1999 H   0  0  0  0  0  0  0  0  0  0  0  0
    2.4440    1.4283   -1.2162 H   0  0  0  0  0  0  0  0  0  0  0  0
    1.5069    0.7518    0.1107 H   0  0  0  0  0  0  0  0  0  0  0  0
    3.6469    1.4897    0.9702 H   0  0  0  0  0  0  0  0  0  0  0  0
    3.6464   -0.2871    1.0270 H   0  0  0  0  0  0  0  0  0  0  0  0
   -0.1939   -0.0734   -1.5064 H   0  0  0  0  0  0  0  0  0  0  0  0
   -1.4637   -1.3039   -1.4863 H   0  0  0  0  0  0  0  0  0  0  0  0
   -2.1244    0.5351   -0.0274 H   0  0  0  0  0  0  0  0  0  0  0  0
   -0.6077    0.4330    0.9065 H   0  0  0  0  0  0  0  0  0  0  0  0
   -0.2409   -1.8187    2.2718 H   0  0  0  0  0  0  0  0  0  0  0  0
   -1.5835   -2.9976    2.1786 H   0  0  0  0  0  0  0  0  0  0  0  0
    0.3235   -3.6532    0.6715 H   0  0  0  0  0  0  0  0  0  0  0  0
   -1.1825   -3.3617   -0.2156 H   0  0  0  0  0  0  0  0  0  0  0  0
   -4.8415   -1.6344    0.4728 H   0  0  0  0  0  0  0  0  0  0  0  0
   -5.6720    3.2311    1.1220 H   0  0  0  0  0  0  0  0  0  0  0  0
   -3.8791    2.1023    2.3823 H   0  0  0  0  0  0  0  0  0  0  0  0
   -7.5273    3.1370   -0.5370 H   0  0  0  0  0  0  0  0  0  0  0  0
   -8.4821   -0.5933   -2.4501 H   0  0  0  0  0  0  0  0  0  0  0  0
   -6.6829   -1.7236   -1.1849 H   0  0  0  0  0  0  0  0  0  0  0  0
  1  2  2  0  0  0  0
  2 35  1  0  0  0  0
  3  2  1  0  0  0  0
  3 36  1  0  0  0  0
  4  3  2  0  0  0  0
  5  6  2  0  0  0  0
  5  4  1  0  0  0  0
  6  1  1  0  0  0  0
  7  4  1  0  0  0  0
  7 12  1  0  0  0  0
  8  9  1  0  0  0  0
  8  7  1  0  0  0  0
  9 10  1  0  0  0  0
  9 41  1  0  0  0  0
 10 11  1  0  0  0  0
 10 13  1  0  0  0  0
 11 45  1  0  0  0  0
 11 12  1  0  0  0  0
 12 46  1  0  0  0  0
 12 47  1  0  0  0  0
 13 14  2  0  0  0  0
 15 13  1  0  0  0  0
 15 20  1  0  0  0  0
 16 15  1  0  0  0  0
 16 17  1  0  0  0  0
 17 51  1  0  0  0  0
 17 18  1  0  0  0  0
 18 19  1  0  0  0  0
 18 21  1  0  0  0  0
 19 53  1  0  0  0  0
 19 52  1  0  0  0  0
 20 54  1  0  0  0  0
 20 19  1  0  0  0  0
 21 23  2  0  0  0  0
 21 22  2  0  0  0  0
 24 29  1  0  0  0  0
 24 21  1  0  0  0  0
 25 24  2  0  0  0  0
 26 27  1  0  0  0  0
 26 25  1  0  0  0  0
 27 28  1  0  0  0  0
 28 57  1  0  0  0  0
 28 29  2  0  0  0  0
 29 58  1  0  0  0  0
 30 59  1  0  0  0  0
 30 27  2  0  0  0  0
 31 30  1  0  0  0  0
 32 31  2  0  0  0  0
 32 33  1  0  0  0  0
 33 26  2  0  0  0  0
 34 31  1  0  0  0  0
 37  5  1  0  0  0  0
 38  6  1  0  0  0  0
 39  8  1  0  0  0  0
 40  8  1  0  0  0  0
 42  9  1  0  0  0  0
 43 10  1  0  0  0  0
 44 11  1  0  0  0  0
 48 16  1  0  0  0  0
 49 16  1  0  0  0  0
 50 17  1  0  0  0  0
 55 20  1  0  0  0  0
 56 25  1  0  0  0  0
 60 32  1  0  0  0  0
 61 33  1  0  0  0  0
M  END
