-37.07
 OpenBabel10231816213D

 24 23  0  0  1  0  0  0  0  0999 V2000
   -0.4759   -1.1753   -0.3343 C   0  0  2  0  0  0  0  0  0  0  0  0
   -1.0746   -2.0351    0.7743 C   0  0  0  0  0  0  0  0  0  0  0  0
   -1.7619   -1.6232    1.6965 O   0  0  0  0  0  0  0  0  0  0  0  0
   -0.7660   -3.3342    0.6443 O   0  0  0  0  0  0  0  0  0  0  0  0
    1.0609   -1.1388   -0.2570 C   0  0  0  0  0  0  0  0  0  0  0  0
    1.6455   -0.3346    0.9088 C   0  0  0  0  0  0  0  0  0  0  0  0
    1.3628    1.1440    0.8708 C   0  0  0  0  0  0  0  0  0  0  0  0
    0.7722    1.7357    1.7731 O   0  0  0  0  0  0  0  0  0  0  0  0
    1.7853    1.7849   -0.2350 O   0  0  0  0  0  0  0  0  0  0  0  0
   -1.0810    0.1376   -0.2570 N   0  0  0  0  0  0  0  0  0  0  0  0
   -0.8910    1.0712   -1.2427 C   0  0  0  0  0  0  0  0  0  0  0  0
   -0.2920    0.8125   -2.2818 O   0  0  0  0  0  0  0  0  0  0  0  0
   -1.3706    2.4504   -0.8823 C   0  0  0  0  0  0  0  0  0  0  0  0
   -0.7666   -1.6239   -1.2942 H   0  0  0  0  0  0  0  0  0  0  0  0
   -1.1910   -3.7832    1.4034 H   0  0  0  0  0  0  0  0  0  0  0  0
    1.4411   -2.1662   -0.1993 H   0  0  0  0  0  0  0  0  0  0  0  0
    1.4369   -0.7347   -1.2001 H   0  0  0  0  0  0  0  0  0  0  0  0
    2.7325   -0.4520    0.9353 H   0  0  0  0  0  0  0  0  0  0  0  0
    1.2660   -0.7202    1.8599 H   0  0  0  0  0  0  0  0  0  0  0  0
    2.1168    1.1890   -0.9328 H   0  0  0  0  0  0  0  0  0  0  0  0
   -1.4941    0.4134    0.6348 H   0  0  0  0  0  0  0  0  0  0  0  0
   -1.3010    3.0957   -1.7600 H   0  0  0  0  0  0  0  0  0  0  0  0
   -0.7493    2.8728   -0.0871 H   0  0  0  0  0  0  0  0  0  0  0  0
   -2.4049    2.4143   -0.5376 H   0  0  0  0  0  0  0  0  0  0  0  0
  1 14  1  6  0  0  0
  1 10  1  0  0  0  0
  1  5  1  0  0  0  0
  1  2  1  0  0  0  0
  2  3  2  0  0  0  0
  4  2  1  0  0  0  0
  4 15  1  0  0  0  0
  5 16  1  0  0  0  0
  5  6  1  0  0  0  0
  6 18  1  0  0  0  0
  6 19  1  0  0  0  0
  7  6  1  0  0  0  0
  7  8  2  0  0  0  0
  9  7  1  0  0  0  0
 10 21  1  0  0  0  0
 11 13  1  0  0  0  0
 11 10  1  0  0  0  0
 12 11  2  0  0  0  0
 13 24  1  0  0  0  0
 13 23  1  0  0  0  0
 17  5  1  0  0  0  0
 20  9  1  0  0  0  0
 22 13  1  0  0  0  0
M  END
