51.6163
 OpenBabel10231816213D

 25 25  0  0  1  0  0  0  0  0999 V2000
    0.2697   -1.9280   -1.8859 O   0  0  0  0  0  0  0  0  0  0  0  0
   -0.6869   -2.3735   -1.0280 C   0  0  0  0  0  0  0  0  0  0  0  0
   -0.8585   -3.5753   -0.8684 O   0  0  0  0  0  0  0  0  0  0  0  0
   -1.3996   -1.3029   -0.3444 C   0  0  0  0  0  0  0  0  0  0  0  0
   -2.5680   -1.5629    0.2632 N   0  0  0  0  0  0  0  0  0  0  0  0
   -2.9879   -0.3825    0.8177 O   0  0  0  0  0  0  0  0  0  0  0  0
   -2.0841    0.5917    0.5499 C   0  0  0  0  0  0  0  0  0  0  0  0
   -1.0277    0.0665   -0.1549 C   0  0  0  0  0  0  0  0  0  0  0  0
    0.2397    0.7588   -0.5403 C   0  0  0  0  0  0  0  0  0  0  0  0
    1.3968    0.4404    0.4231 C   0  0  2  0  0  0  0  0  0  0  0  0
    2.6070    1.2395    0.0697 N   0  0  0  0  0  0  0  0  0  0  0  0
    1.7829   -1.0346    0.3562 C   0  0  0  0  0  0  0  0  0  0  0  0
    1.1521   -1.9310    0.8915 O   0  0  0  0  0  0  0  0  0  0  0  0
    2.8751   -1.2662   -0.4293 O   0  0  0  0  0  0  0  0  0  0  0  0
   -2.3975    1.9340    1.0789 C   0  0  0  0  0  0  0  0  0  0  0  0
    0.7701   -2.7326   -2.1427 H   0  0  0  0  0  0  0  0  0  0  0  0
    0.5277    0.5038   -1.5637 H   0  0  0  0  0  0  0  0  0  0  0  0
    0.0668    1.8474   -0.5362 H   0  0  0  0  0  0  0  0  0  0  0  0
    1.0807    0.6415    1.4560 H   0  0  0  0  0  0  0  0  0  0  0  0
    3.1324    1.4384    0.9288 H   0  0  0  0  0  0  0  0  0  0  0  0
    2.3262    2.1501   -0.2994 H   0  0  0  0  0  0  0  0  0  0  0  0
    3.2091   -0.3929   -0.6874 H   0  0  0  0  0  0  0  0  0  0  0  0
   -3.4113    2.2379    0.8026 H   0  0  0  0  0  0  0  0  0  0  0  0
   -2.3108    1.9562    2.1690 H   0  0  0  0  0  0  0  0  0  0  0  0
   -1.7039    2.6764    0.6741 H   0  0  0  0  0  0  0  0  0  0  0  0
  1  2  1  0  0  0  0
  2  3  2  0  0  0  0
  2  4  1  0  0  0  0
  4  8  1  0  0  0  0
  4  5  2  0  0  0  0
  5  6  1  0  0  0  0
  7  6  1  0  0  0  0
  7 15  1  0  0  0  0
  8  7  2  0  0  0  0
  9 18  1  0  0  0  0
  9  8  1  0  0  0  0
  9 10  1  0  0  0  0
 10 19  1  1  0  0  0
 11 10  1  0  0  0  0
 11 20  1  0  0  0  0
 12 10  1  0  0  0  0
 12 13  2  0  0  0  0
 14 12  1  0  0  0  0
 15 24  1  0  0  0  0
 16  1  1  0  0  0  0
 17  9  1  0  0  0  0
 21 11  1  0  0  0  0
 22 14  1  0  0  0  0
 23 15  1  0  0  0  0
 25 15  1  0  0  0  0
M  END
