-13.4913
 OpenBabel10231816213D

 66 68  0  0  1  0  0  0  0  0999 V2000
    0.4032   -0.1329    0.5669 C   0  0  2  0  0  0  0  0  0  0  0  0
    0.9406   -1.0647   -0.5380 C   0  0  0  0  0  0  0  0  0  0  0  0
   -0.1223   -2.0692   -0.9374 C   0  0  0  0  0  0  0  0  0  0  0  0
   -0.4330   -3.1415   -0.0974 C   0  0  0  0  0  0  0  0  0  0  0  0
   -1.5878   -3.8973   -0.3181 C   0  0  0  0  0  0  0  0  0  0  0  0
   -2.4493   -3.5663   -1.3637 C   0  0  0  0  0  0  0  0  0  0  0  0
   -2.0941   -2.5753   -2.2657 C   0  0  0  0  0  0  0  0  0  0  0  0
   -0.9374   -1.8230   -2.0513 C   0  0  0  0  0  0  0  0  0  0  0  0
   -3.6173   -4.2689   -1.4498 O   0  0  0  0  0  0  0  0  0  0  0  0
   -4.8278   -3.4931   -1.4950 C   0  0  0  0  0  0  0  0  0  0  0  0
   -5.1659   -2.7726   -0.1809 C   0  0  0  0  0  0  0  0  0  0  0  0
   -4.4767   -1.4074   -0.0203 C   0  0  0  0  0  0  0  0  0  0  0  0
   -4.7933   -0.7699    1.3166 C   0  0  0  0  0  0  0  0  0  0  0  0
   -5.5100   -1.3211    2.1723 O   0  0  0  0  0  0  0  0  0  0  0  0
   -4.2725    0.4629    1.5893 N   0  0  0  0  0  0  0  0  0  0  0  0
   -3.1931    1.1177    0.8597 C   0  0  2  0  0  0  0  0  0  0  0  0
   -1.8498    0.5562    1.3310 C   0  0  0  0  0  0  0  0  0  0  0  0
   -1.5331    0.5148    2.5136 O   0  0  0  0  0  0  0  0  0  0  0  0
   -1.0013    0.1961    0.3235 N   0  0  0  0  0  0  0  0  0  0  0  0
   -3.1636    2.6094    1.1699 C   0  0  0  0  0  0  0  0  0  0  0  0
   -1.9818    3.2381    0.4738 C   0  0  0  0  0  0  0  0  0  0  0  0
   -1.5451    2.8409   -0.6001 O   0  0  0  0  0  0  0  0  0  0  0  0
   -1.3946    4.2766    1.1259 N   0  0  0  0  0  0  0  0  0  0  0  0
    1.1888    1.1860    0.6767 C   0  0  2  0  0  0  0  0  0  0  0  0
    1.1332    1.9306   -0.5639 O   0  0  0  0  0  0  0  0  0  0  0  0
    2.6709    0.9908    1.0028 C   0  0  0  0  0  0  0  0  0  0  0  0
    3.2912    2.3226    1.0133 N   0  0  0  0  0  0  0  0  0  0  0  0
    4.9184    2.4937    1.3295 S   0  0  0  0  0  0  0  0  0  0  0  0
    5.1687    1.9265    2.6350 O   0  0  0  0  0  0  0  0  0  0  0  0
    5.2244    3.8744    1.0172 O   0  0  0  0  0  0  0  0  0  0  0  0
    5.7158    1.4707    0.1200 C   0  0  0  0  0  0  0  0  0  0  0  0
    6.1228    2.0175   -1.0963 C   0  0  0  0  0  0  0  0  0  0  0  0
    6.7421    1.2032   -2.0470 C   0  0  0  0  0  0  0  0  0  0  0  0
    6.9715   -0.1464   -1.7703 C   0  0  0  0  0  0  0  0  0  0  0  0
    6.5903   -0.6821   -0.5389 C   0  0  0  0  0  0  0  0  0  0  0  0
    5.9719    0.1302    0.4125 C   0  0  0  0  0  0  0  0  0  0  0  0
    0.4524   -0.6466    1.5353 H   0  0  0  0  0  0  0  0  0  0  0  0
    1.2370   -0.4737   -1.4135 H   0  0  0  0  0  0  0  0  0  0  0  0
    1.8382   -1.5868   -0.1825 H   0  0  0  0  0  0  0  0  0  0  0  0
    0.2047   -3.3603    0.7560 H   0  0  0  0  0  0  0  0  0  0  0  0
   -1.8407   -4.7127    0.3544 H   0  0  0  0  0  0  0  0  0  0  0  0
   -2.7237   -2.3638   -3.1212 H   0  0  0  0  0  0  0  0  0  0  0  0
   -0.6975   -1.0034   -2.7252 H   0  0  0  0  0  0  0  0  0  0  0  0
   -5.6117   -4.2406   -1.6876 H   0  0  0  0  0  0  0  0  0  0  0  0
   -4.8419   -2.7921   -2.3369 H   0  0  0  0  0  0  0  0  0  0  0  0
   -6.2503   -2.5973   -0.1442 H   0  0  0  0  0  0  0  0  0  0  0  0
   -4.9195   -3.4200    0.6688 H   0  0  0  0  0  0  0  0  0  0  0  0
   -3.3928   -1.5069   -0.0880 H   0  0  0  0  0  0  0  0  0  0  0  0
   -4.8019   -0.7324   -0.8165 H   0  0  0  0  0  0  0  0  0  0  0  0
   -4.3575    0.7075    2.5711 H   0  0  0  0  0  0  0  0  0  0  0  0
   -3.3230    0.9559   -0.2134 H   0  0  0  0  0  0  0  0  0  0  0  0
   -1.2495    0.4350   -0.6321 H   0  0  0  0  0  0  0  0  0  0  0  0
   -4.0833    3.0794    0.8105 H   0  0  0  0  0  0  0  0  0  0  0  0
   -3.0958    2.7666    2.2538 H   0  0  0  0  0  0  0  0  0  0  0  0
   -0.6403    4.7756    0.6653 H   0  0  0  0  0  0  0  0  0  0  0  0
   -1.7837    4.6856    1.9654 H   0  0  0  0  0  0  0  0  0  0  0  0
    0.7271    1.8055    1.4579 H   0  0  0  0  0  0  0  0  0  0  0  0
    0.2182    2.2733   -0.6671 H   0  0  0  0  0  0  0  0  0  0  0  0
    3.1463    0.3896    0.2234 H   0  0  0  0  0  0  0  0  0  0  0  0
    2.7888    0.5079    1.9717 H   0  0  0  0  0  0  0  0  0  0  0  0
    2.9891    2.9210    0.2430 H   0  0  0  0  0  0  0  0  0  0  0  0
    5.9549    3.0708   -1.3055 H   0  0  0  0  0  0  0  0  0  0  0  0
    7.0461    1.6235   -3.0028 H   0  0  0  0  0  0  0  0  0  0  0  0
    7.4537   -0.7793   -2.5125 H   0  0  0  0  0  0  0  0  0  0  0  0
    6.7758   -1.7302   -0.3175 H   0  0  0  0  0  0  0  0  0  0  0  0
    5.6763   -0.2783    1.3746 H   0  0  0  0  0  0  0  0  0  0  0  0
  1 24  1  0  0  0  0
  1 37  1  1  0  0  0
  2 39  1  0  0  0  0
  2  1  1  0  0  0  0
  3  2  1  0  0  0  0
  3  4  2  0  0  0  0
  4 40  1  0  0  0  0
  5  4  1  0  0  0  0
  5 41  1  0  0  0  0
  6  5  2  0  0  0  0
  7  8  2  0  0  0  0
  7  6  1  0  0  0  0
  8  3  1  0  0  0  0
  9  6  1  0  0  0  0
 10  9  1  0  0  0  0
 10 11  1  0  0  0  0
 11 46  1  0  0  0  0
 11 12  1  0  0  0  0
 11 47  1  0  0  0  0
 12 13  1  0  0  0  0
 13 15  1  0  0  0  0
 13 14  2  0  0  0  0
 15 50  1  0  0  0  0
 16 51  1  6  0  0  0
 16 20  1  0  0  0  0
 16 17  1  0  0  0  0
 16 15  1  0  0  0  0
 17 18  2  0  0  0  0
 19  1  1  0  0  0  0
 19 17  1  0  0  0  0
 20 54  1  0  0  0  0
 21 23  1  0  0  0  0
 21 20  1  0  0  0  0
 22 21  2  0  0  0  0
 23 56  1  0  0  0  0
 24 26  1  0  0  0  0
 24 57  1  1  0  0  0
 25 24  1  0  0  0  0
 26 27  1  0  0  0  0
 26 60  1  0  0  0  0
 27 28  1  0  0  0  0
 28 29  2  0  0  0  0
 30 28  2  0  0  0  0
 31 36  1  0  0  0  0
 31 28  1  0  0  0  0
 32 31  2  0  0  0  0
 33 34  2  0  0  0  0
 33 32  1  0  0  0  0
 34 35  1  0  0  0  0
 35 65  1  0  0  0  0
 35 36  2  0  0  0  0
 36 66  1  0  0  0  0
 38  2  1  0  0  0  0
 42  7  1  0  0  0  0
 43  8  1  0  0  0  0
 44 10  1  0  0  0  0
 45 10  1  0  0  0  0
 48 12  1  0  0  0  0
 49 12  1  0  0  0  0
 52 19  1  0  0  0  0
 53 20  1  0  0  0  0
 55 23  1  0  0  0  0
 58 25  1  0  0  0  0
 59 26  1  0  0  0  0
 61 27  1  0  0  0  0
 62 32  1  0  0  0  0
 63 33  1  0  0  0  0
 64 34  1  0  0  0  0
M  END
