-42.7731
 OpenBabel10231816213D

 24 23  0  0  1  0  0  0  0  0999 V2000
   -0.5396   -1.0112   -0.4107 C   0  0  2  0  0  0  0  0  0  0  0  0
   -1.0525   -1.8958    0.7266 C   0  0  0  0  0  0  0  0  0  0  0  0
   -1.9942   -1.6376    1.4616 O   0  0  0  0  0  0  0  0  0  0  0  0
   -0.3847   -3.0572    0.8495 O   0  0  0  0  0  0  0  0  0  0  0  0
    0.9647   -0.7312   -0.3019 C   0  0  0  0  0  0  0  0  0  0  0  0
    1.3549    0.0443    0.9576 C   0  0  0  0  0  0  0  0  0  0  0  0
    2.8183    0.3939    0.9568 C   0  0  0  0  0  0  0  0  0  0  0  0
    3.6347    0.1886    0.0776 O   0  0  0  0  0  0  0  0  0  0  0  0
    3.1838    1.0062    2.1018 O   0  0  0  0  0  0  0  0  0  0  0  0
   -1.3327    0.2185   -0.4418 N   0  0  0  0  0  0  0  0  0  0  0  0
   -1.3663    1.0180   -1.5572 C   0  0  0  0  0  0  0  0  0  0  0  0
   -0.6919    0.8081   -2.5589 O   0  0  0  0  0  0  0  0  0  0  0  0
   -2.3024    2.1866   -1.4458 C   0  0  0  0  0  0  0  0  0  0  0  0
   -0.7428   -1.5467   -1.3472 H   0  0  0  0  0  0  0  0  0  0  0  0
   -0.8359   -3.5301    1.5803 H   0  0  0  0  0  0  0  0  0  0  0  0
    1.5201   -1.6778   -0.3259 H   0  0  0  0  0  0  0  0  0  0  0  0
    1.2952   -0.1694   -1.1848 H   0  0  0  0  0  0  0  0  0  0  0  0
    1.1506   -0.5601    1.8479 H   0  0  0  0  0  0  0  0  0  0  0  0
    0.7908    0.9807    1.0231 H   0  0  0  0  0  0  0  0  0  0  0  0
    4.1385    1.1898    1.9751 H   0  0  0  0  0  0  0  0  0  0  0  0
   -2.0171    0.3533    0.2977 H   0  0  0  0  0  0  0  0  0  0  0  0
   -2.2658    2.7653   -2.3734 H   0  0  0  0  0  0  0  0  0  0  0  0
   -3.3258    1.8324   -1.2921 H   0  0  0  0  0  0  0  0  0  0  0  0
   -2.0000    2.8314   -0.6160 H   0  0  0  0  0  0  0  0  0  0  0  0
  1 14  1  6  0  0  0
  1  5  1  0  0  0  0
  1  2  1  0  0  0  0
  2  4  1  0  0  0  0
  2  3  2  0  0  0  0
  4 15  1  0  0  0  0
  5  6  1  0  0  0  0
  6 19  1  0  0  0  0
  6 18  1  0  0  0  0
  7  6  1  0  0  0  0
  7  9  1  0  0  0  0
  8  7  2  0  0  0  0
 10  1  1  0  0  0  0
 10 21  1  0  0  0  0
 11 13  1  0  0  0  0
 11 10  1  0  0  0  0
 12 11  2  0  0  0  0
 13 23  1  0  0  0  0
 13 24  1  0  0  0  0
 16  5  1  0  0  0  0
 17  5  1  0  0  0  0
 20  9  1  0  0  0  0
 22 13  1  0  0  0  0
M  END
