44.9123
 OpenBabel10231816213D

 61 65  0  0  0  0  0  0  0  0999 V2000
    7.8635    2.4259   -2.0936 N   0  0  0  0  0  0  0  0  0  0  0  0
    7.0009    1.7883   -2.9083 C   0  0  0  0  0  0  0  0  0  0  0  0
    5.8461    1.1708   -2.4777 C   0  0  0  0  0  0  0  0  0  0  0  0
    5.5076    1.1846   -1.1122 C   0  0  0  0  0  0  0  0  0  0  0  0
    6.4191    1.8124   -0.2604 C   0  0  0  0  0  0  0  0  0  0  0  0
    7.5511    2.4185   -0.7834 C   0  0  0  0  0  0  0  0  0  0  0  0
    4.3599    0.5683   -0.6217 N   0  0  0  0  0  0  0  0  0  0  0  0
    3.6440    1.1288    0.5253 C   0  0  0  0  0  0  0  0  0  0  0  0
    3.1896   -0.0153    1.4431 C   0  0  0  0  0  0  0  0  0  0  0  0
    2.7942   -1.2597    0.6243 C   0  0  0  0  0  0  0  0  0  0  0  0
    2.3870   -0.8967   -0.8047 C   0  0  0  0  0  0  0  0  0  0  0  0
    3.5657   -0.2521   -1.5331 C   0  0  0  0  0  0  0  0  0  0  0  0
    1.8107   -2.1861    1.3094 C   0  0  0  0  0  0  0  0  0  0  0  0
    2.0977   -3.4077    1.3666 O   0  0  0  0  0  0  0  0  0  0  0  0
    0.6360   -1.7029    1.8256 N   0  0  0  0  0  0  0  0  0  0  0  0
   -0.0772   -0.4945    1.3898 C   0  0  0  0  0  0  0  0  0  0  0  0
   -1.1956   -0.8646    0.4088 C   0  0  0  0  0  0  0  0  0  0  0  0
   -2.1067   -1.8987    0.9594 N   0  0  0  0  0  0  0  0  0  0  0  0
   -1.3510   -3.0872    1.4698 C   0  0  0  0  0  0  0  0  0  0  0  0
   -0.2633   -2.6627    2.4569 C   0  0  0  0  0  0  0  0  0  0  0  0
   -3.3152   -1.3887    2.0387 S   0  0  0  0  0  0  0  0  0  0  0  0
   -4.1350   -2.5351    2.3253 O   0  0  0  0  0  0  0  0  0  0  0  0
   -2.6659   -0.6504    3.1093 O   0  0  0  0  0  0  0  0  0  0  0  0
   -4.2420   -0.2352    1.0689 C   0  0  0  0  0  0  0  0  0  0  0  0
   -4.9305   -0.6506   -0.0714 C   0  0  0  0  0  0  0  0  0  0  0  0
   -5.6600    0.2833   -0.8260 C   0  0  0  0  0  0  0  0  0  0  0  0
   -5.6892    1.6466   -0.4269 C   0  0  0  0  0  0  0  0  0  0  0  0
   -4.9784    2.0391    0.7169 C   0  0  0  0  0  0  0  0  0  0  0  0
   -4.2531    1.1017    1.4588 C   0  0  0  0  0  0  0  0  0  0  0  0
   -6.4255    2.5735   -1.1815 C   0  0  0  0  0  0  0  0  0  0  0  0
   -7.1251    2.1564   -2.3182 C   0  0  0  0  0  0  0  0  0  0  0  0
   -7.0985    0.8240   -2.7136 C   0  0  0  0  0  0  0  0  0  0  0  0
   -6.3698   -0.1090   -1.9718 C   0  0  0  0  0  0  0  0  0  0  0  0
   -8.0238    3.3008   -3.2352 Cl  0  0  0  0  0  0  0  0  0  0  0  0
    7.2641    1.7914   -3.9610 H   0  0  0  0  0  0  0  0  0  0  0  0
    5.2224    0.6782   -3.2147 H   0  0  0  0  0  0  0  0  0  0  0  0
    6.2832    1.8100    0.8133 H   0  0  0  0  0  0  0  0  0  0  0  0
    8.2626    2.9219   -0.1339 H   0  0  0  0  0  0  0  0  0  0  0  0
    4.2374    1.8449    1.0934 H   0  0  0  0  0  0  0  0  0  0  0  0
    2.7652    1.6815    0.1647 H   0  0  0  0  0  0  0  0  0  0  0  0
    2.3853    0.3409    2.0976 H   0  0  0  0  0  0  0  0  0  0  0  0
    4.0051   -0.2886    2.1261 H   0  0  0  0  0  0  0  0  0  0  0  0
    3.7124   -1.8627    0.5289 H   0  0  0  0  0  0  0  0  0  0  0  0
    2.0580   -1.7849   -1.3485 H   0  0  0  0  0  0  0  0  0  0  0  0
    1.5390   -0.2038   -0.8139 H   0  0  0  0  0  0  0  0  0  0  0  0
    3.1947    0.3560   -2.3657 H   0  0  0  0  0  0  0  0  0  0  0  0
    4.2088   -1.0406   -1.9404 H   0  0  0  0  0  0  0  0  0  0  0  0
    0.5864    0.2396    0.9475 H   0  0  0  0  0  0  0  0  0  0  0  0
   -0.4985   -0.0410    2.2884 H   0  0  0  0  0  0  0  0  0  0  0  0
   -0.7708   -1.2765   -0.5144 H   0  0  0  0  0  0  0  0  0  0  0  0
   -1.7788    0.0154    0.1389 H   0  0  0  0  0  0  0  0  0  0  0  0
   -2.0606   -3.7676    1.9462 H   0  0  0  0  0  0  0  0  0  0  0  0
   -0.9093   -3.6059    0.6109 H   0  0  0  0  0  0  0  0  0  0  0  0
   -0.7059   -2.1785    3.3290 H   0  0  0  0  0  0  0  0  0  0  0  0
    0.2969   -3.5351    2.8072 H   0  0  0  0  0  0  0  0  0  0  0  0
   -4.9048   -1.6981   -0.3665 H   0  0  0  0  0  0  0  0  0  0  0  0
   -4.9872    3.0772    1.0454 H   0  0  0  0  0  0  0  0  0  0  0  0
   -3.7061    1.4215    2.3474 H   0  0  0  0  0  0  0  0  0  0  0  0
   -6.4601    3.6225   -0.8892 H   0  0  0  0  0  0  0  0  0  0  0  0
   -7.6477    0.5067   -3.6021 H   0  0  0  0  0  0  0  0  0  0  0  0
   -6.3591   -1.1504   -2.2919 H   0  0  0  0  0  0  0  0  0  0  0  0
  1  6  2  0  0  0  0
  2  3  2  0  0  0  0
  2  1  1  0  0  0  0
  3  4  1  0  0  0  0
  4  7  1  0  0  0  0
  4  5  2  0  0  0  0
  5 37  1  0  0  0  0
  6  5  1  0  0  0  0
  6 38  1  0  0  0  0
  7  8  1  0  0  0  0
  8 39  1  0  0  0  0
  8  9  1  0  0  0  0
  9 41  1  0  0  0  0
  9 42  1  0  0  0  0
 10 13  1  0  0  0  0
 10  9  1  0  0  0  0
 11 10  1  0  0  0  0
 12 11  1  0  0  0  0
 12  7  1  0  0  0  0
 13 14  2  0  0  0  0
 13 15  1  0  0  0  0
 15 20  1  0  0  0  0
 16 15  1  0  0  0  0
 16 49  1  0  0  0  0
 17 18  1  0  0  0  0
 17 16  1  0  0  0  0
 18 19  1  0  0  0  0
 18 21  1  0  0  0  0
 19 52  1  0  0  0  0
 19 20  1  0  0  0  0
 20 55  1  0  0  0  0
 20 54  1  0  0  0  0
 21 22  2  0  0  0  0
 21 23  2  0  0  0  0
 24 29  1  0  0  0  0
 24 21  1  0  0  0  0
 25 24  2  0  0  0  0
 26 27  1  0  0  0  0
 26 25  1  0  0  0  0
 27 28  1  0  0  0  0
 28 57  1  0  0  0  0
 28 29  2  0  0  0  0
 29 58  1  0  0  0  0
 30 59  1  0  0  0  0
 30 27  2  0  0  0  0
 31 30  1  0  0  0  0
 32 31  2  0  0  0  0
 32 33  1  0  0  0  0
 33 26  2  0  0  0  0
 34 31  1  0  0  0  0
 35  2  1  0  0  0  0
 36  3  1  0  0  0  0
 40  8  1  0  0  0  0
 43 10  1  0  0  0  0
 44 11  1  0  0  0  0
 45 11  1  0  0  0  0
 46 12  1  0  0  0  0
 47 12  1  0  0  0  0
 48 16  1  0  0  0  0
 50 17  1  0  0  0  0
 51 17  1  0  0  0  0
 53 19  1  0  0  0  0
 56 25  1  0  0  0  0
 60 32  1  0  0  0  0
 61 33  1  0  0  0  0
M  END
