54.5123
 OpenBabel10231816213D

 36 36  0  0  1  0  0  0  0  0999 V2000
    3.8627    1.4307   -0.5669 C   0  0  0  0  0  0  0  0  0  0  0  0
    4.3161    1.5828    0.8570 C   0  0  0  0  0  0  0  0  0  0  0  0
    2.8556    1.6217    0.5284 C   0  0  0  0  0  0  0  0  0  0  0  0
    2.0204    0.5306    0.9680 N   0  0  0  0  0  0  0  0  0  0  0  0
    1.0190    0.1371   -0.0296 C   0  0  0  0  0  0  0  0  0  0  0  0
    0.3201   -1.1471    0.4354 C   0  0  0  0  0  0  0  0  0  0  0  0
   -0.5183   -1.7972   -0.6793 C   0  0  1  0  0  0  0  0  0  0  0  0
   -1.2847   -2.8683   -0.0143 N   0  0  0  0  0  0  0  0  0  0  0  0
   -1.4396   -0.8692   -1.4947 C   0  0  0  0  0  0  0  0  0  0  0  0
   -2.6491   -0.2472   -0.7784 C   0  0  0  0  0  0  0  0  0  0  0  0
   -2.4029    1.1161   -0.1231 C   0  0  0  0  0  0  0  0  0  0  0  0
   -3.6935    1.7037    0.4442 C   0  0  0  0  0  0  0  0  0  0  0  0
   -0.4866   -0.9338    1.5859 O   0  0  0  0  0  0  0  0  0  0  0  0
    1.3290   -2.1107    0.8036 O   0  0  0  0  0  0  0  0  0  0  0  0
    4.0165    2.2608   -1.2512 H   0  0  0  0  0  0  0  0  0  0  0  0
    3.9570    0.4552   -1.0261 H   0  0  0  0  0  0  0  0  0  0  0  0
    4.6995    0.7083    1.3646 H   0  0  0  0  0  0  0  0  0  0  0  0
    4.7810    2.5128    1.1629 H   0  0  0  0  0  0  0  0  0  0  0  0
    2.3623    2.5884    0.5867 H   0  0  0  0  0  0  0  0  0  0  0  0
    2.5471   -0.3041    1.2237 H   0  0  0  0  0  0  0  0  0  0  0  0
    0.3042    0.9474   -0.1564 H   0  0  0  0  0  0  0  0  0  0  0  0
    1.4991   -0.0616   -0.9920 H   0  0  0  0  0  0  0  0  0  0  0  0
    0.1863   -2.2513   -1.3897 H   0  0  0  0  0  0  0  0  0  0  0  0
   -0.6720   -3.6541    0.1785 H   0  0  0  0  0  0  0  0  0  0  0  0
   -2.0210   -3.2211   -0.6500 H   0  0  0  0  0  0  0  0  0  0  0  0
   -1.8261   -1.4829   -2.3234 H   0  0  0  0  0  0  0  0  0  0  0  0
   -0.8420   -0.0871   -1.9752 H   0  0  0  0  0  0  0  0  0  0  0  0
   -3.4383   -0.1121   -1.5279 H   0  0  0  0  0  0  0  0  0  0  0  0
   -3.0499   -0.9469   -0.0371 H   0  0  0  0  0  0  0  0  0  0  0  0
   -1.9838    1.8084   -0.8582 H   0  0  0  0  0  0  0  0  0  0  0  0
   -1.6812    1.0326    0.6902 H   0  0  0  0  0  0  0  0  0  0  0  0
   -3.5100    2.6726    0.9251 H   0  0  0  0  0  0  0  0  0  0  0  0
   -4.1367    1.0398    1.1938 H   0  0  0  0  0  0  0  0  0  0  0  0
   -4.4346    1.8618   -0.3454 H   0  0  0  0  0  0  0  0  0  0  0  0
   -1.1464   -1.6512    1.5222 H   0  0  0  0  0  0  0  0  0  0  0  0
    1.1405   -2.2648    1.7487 H   0  0  0  0  0  0  0  0  0  0  0  0
  1  3  1  0  0  0  0
  1  2  1  0  0  0  0
  2 18  1  0  0  0  0
  2 17  1  0  0  0  0
  3 19  1  0  0  0  0
  3  2  1  0  0  0  0
  3  4  1  0  0  0  0
  4 20  1  0  0  0  0
  5  6  1  0  0  0  0
  5  4  1  0  0  0  0
  6 14  1  0  0  0  0
  6 13  1  0  0  0  0
  7 23  1  6  0  0  0
  7  8  1  0  0  0  0
  7  6  1  0  0  0  0
  8 24  1  0  0  0  0
  9 10  1  0  0  0  0
  9  7  1  0  0  0  0
 10 11  1  0  0  0  0
 10 29  1  0  0  0  0
 11 12  1  0  0  0  0
 11 31  1  0  0  0  0
 12 32  1  0  0  0  0
 12 33  1  0  0  0  0
 14 36  1  0  0  0  0
 15  1  1  0  0  0  0
 16  1  1  0  0  0  0
 21  5  1  0  0  0  0
 22  5  1  0  0  0  0
 25  8  1  0  0  0  0
 26  9  1  0  0  0  0
 27  9  1  0  0  0  0
 28 10  1  0  0  0  0
 30 11  1  0  0  0  0
 34 12  1  0  0  0  0
 35 13  1  0  0  0  0
M  END
