46.6529
 OpenBabel10231816213D

 36 36  0  0  1  0  0  0  0  0999 V2000
    3.7551    1.9712    0.0947 C   0  0  0  0  0  0  0  0  0  0  0  0
    4.6326    1.3292    1.1279 C   0  0  0  0  0  0  0  0  0  0  0  0
    3.8859    0.4757    0.1400 C   0  0  0  0  0  0  0  0  0  0  0  0
    2.8058   -0.3761    0.6283 N   0  0  0  0  0  0  0  0  0  0  0  0
    1.5213   -0.1642   -0.0785 C   0  0  0  0  0  0  0  0  0  0  0  0
    0.5616   -1.3096    0.3144 C   0  0  0  0  0  0  0  0  0  0  0  0
   -0.7449   -1.3393   -0.5412 C   0  0  1  0  0  0  0  0  0  0  0  0
   -1.5527   -2.5411   -0.2050 N   0  0  0  0  0  0  0  0  0  0  0  0
   -1.6118   -0.0766   -0.3644 C   0  0  0  0  0  0  0  0  0  0  0  0
   -2.8478   -0.0751   -1.2746 C   0  0  0  0  0  0  0  0  0  0  0  0
   -3.7014    1.1872   -1.1373 C   0  0  0  0  0  0  0  0  0  0  0  0
   -4.3812    1.3088    0.2180 C   0  0  0  0  0  0  0  0  0  0  0  0
    1.2441   -2.5615    0.1760 O   0  0  0  0  0  0  0  0  0  0  0  0
    0.2519   -1.2097    1.7006 O   0  0  0  0  0  0  0  0  0  0  0  0
    4.2298    2.4838   -0.7339 H   0  0  0  0  0  0  0  0  0  0  0  0
    2.8363    2.4348    0.4303 H   0  0  0  0  0  0  0  0  0  0  0  0
    5.7063    1.4108    1.0104 H   0  0  0  0  0  0  0  0  0  0  0  0
    4.2987    1.3610    2.1581 H   0  0  0  0  0  0  0  0  0  0  0  0
    4.4790    0.0207   -0.6511 H   0  0  0  0  0  0  0  0  0  0  0  0
    2.6276   -0.2443    1.6281 H   0  0  0  0  0  0  0  0  0  0  0  0
    1.6951   -0.1836   -1.1606 H   0  0  0  0  0  0  0  0  0  0  0  0
    1.1052    0.8054    0.2076 H   0  0  0  0  0  0  0  0  0  0  0  0
   -0.4625   -1.4387   -1.5960 H   0  0  0  0  0  0  0  0  0  0  0  0
   -1.7896   -2.4842    0.7863 H   0  0  0  0  0  0  0  0  0  0  0  0
   -0.9170   -3.3428   -0.2710 H   0  0  0  0  0  0  0  0  0  0  0  0
   -1.0165    0.8140   -0.6010 H   0  0  0  0  0  0  0  0  0  0  0  0
   -1.9154    0.0161    0.6842 H   0  0  0  0  0  0  0  0  0  0  0  0
   -3.4757   -0.9502   -1.0712 H   0  0  0  0  0  0  0  0  0  0  0  0
   -2.5180   -0.1574   -2.3175 H   0  0  0  0  0  0  0  0  0  0  0  0
   -3.0906    2.0776   -1.3247 H   0  0  0  0  0  0  0  0  0  0  0  0
   -4.4770    1.1647   -1.9123 H   0  0  0  0  0  0  0  0  0  0  0  0
   -4.9879    0.4233    0.4333 H   0  0  0  0  0  0  0  0  0  0  0  0
   -3.6537    1.4336    1.0249 H   0  0  0  0  0  0  0  0  0  0  0  0
   -5.0414    2.1819    0.2293 H   0  0  0  0  0  0  0  0  0  0  0  0
    2.1910   -2.3157    0.2461 H   0  0  0  0  0  0  0  0  0  0  0  0
    0.3579   -2.1298    2.0021 H   0  0  0  0  0  0  0  0  0  0  0  0
  1  3  1  0  0  0  0
  1 16  1  0  0  0  0
  1  2  1  0  0  0  0
  2 18  1  0  0  0  0
  3  4  1  0  0  0  0
  3  2  1  0  0  0  0
  4 20  1  0  0  0  0
  5 22  1  0  0  0  0
  5  6  1  0  0  0  0
  5  4  1  0  0  0  0
  6 14  1  0  0  0  0
  7 23  1  6  0  0  0
  7  9  1  0  0  0  0
  7  8  1  0  0  0  0
  7  6  1  0  0  0  0
  8 24  1  0  0  0  0
  9 27  1  0  0  0  0
 10 11  1  0  0  0  0
 10 28  1  0  0  0  0
 10  9  1  0  0  0  0
 11 12  1  0  0  0  0
 12 34  1  0  0  0  0
 12 32  1  0  0  0  0
 12 33  1  0  0  0  0
 13 35  1  0  0  0  0
 13  6  1  0  0  0  0
 14 36  1  0  0  0  0
 15  1  1  0  0  0  0
 17  2  1  0  0  0  0
 19  3  1  0  0  0  0
 21  5  1  0  0  0  0
 25  8  1  0  0  0  0
 26  9  1  0  0  0  0
 29 10  1  0  0  0  0
 30 11  1  0  0  0  0
 31 11  1  0  0  0  0
M  END
