-35.1474
 OpenBabel10231816213D

 24 23  0  0  1  0  0  0  0  0999 V2000
   -0.4744   -0.9929   -0.4636 C   0  0  2  0  0  0  0  0  0  0  0  0
   -1.0080   -1.8692    0.6717 C   0  0  0  0  0  0  0  0  0  0  0  0
   -1.9889   -1.6218    1.3594 O   0  0  0  0  0  0  0  0  0  0  0  0
   -0.3061   -3.0010    0.8642 O   0  0  0  0  0  0  0  0  0  0  0  0
    1.0326   -0.7282   -0.3415 C   0  0  0  0  0  0  0  0  0  0  0  0
    1.4284   -0.0049    0.9496 C   0  0  0  0  0  0  0  0  0  0  0  0
    2.9037    0.3241    0.9741 C   0  0  0  0  0  0  0  0  0  0  0  0
    3.7081    0.0406    0.1031 O   0  0  0  0  0  0  0  0  0  0  0  0
    3.2633    0.9742    2.1053 O   0  0  0  0  0  0  0  0  0  0  0  0
   -1.2515    0.2491   -0.4929 N   0  0  0  0  0  0  0  0  0  0  0  0
   -1.2828    1.0488   -1.6079 C   0  0  0  0  0  0  0  0  0  0  0  0
   -0.6108    0.8418   -2.6120 O   0  0  0  0  0  0  0  0  0  0  0  0
   -2.2136    2.2238   -1.4869 C   0  0  0  0  0  0  0  0  0  0  0  0
   -0.6781   -1.5246   -1.4010 H   0  0  0  0  0  0  0  0  0  0  0  0
   -0.7770   -3.4762    1.5816 H   0  0  0  0  0  0  0  0  0  0  0  0
    1.3710   -0.1369   -1.2010 H   0  0  0  0  0  0  0  0  0  0  0  0
    1.5779   -1.6788   -0.3988 H   0  0  0  0  0  0  0  0  0  0  0  0
    1.2114   -0.6391    1.8159 H   0  0  0  0  0  0  0  0  0  0  0  0
    0.8733    0.9346    1.0434 H   0  0  0  0  0  0  0  0  0  0  0  0
    2.5247    1.1372    2.7217 H   0  0  0  0  0  0  0  0  0  0  0  0
   -1.9829    0.3547    0.2056 H   0  0  0  0  0  0  0  0  0  0  0  0
   -3.2396    1.8720   -1.3522 H   0  0  0  0  0  0  0  0  0  0  0  0
   -2.1633    2.8254   -2.3992 H   0  0  0  0  0  0  0  0  0  0  0  0
   -1.9174    2.8471   -0.6385 H   0  0  0  0  0  0  0  0  0  0  0  0
  1 14  1  6  0  0  0
  1  5  1  0  0  0  0
  1  2  1  0  0  0  0
  2  4  1  0  0  0  0
  2  3  2  0  0  0  0
  4 15  1  0  0  0  0
  5  6  1  0  0  0  0
  6  7  1  0  0  0  0
  6 19  1  0  0  0  0
  6 18  1  0  0  0  0
  7  9  1  0  0  0  0
  8  7  2  0  0  0  0
  9 20  1  0  0  0  0
 10  1  1  0  0  0  0
 10 21  1  0  0  0  0
 11 13  1  0  0  0  0
 11 10  1  0  0  0  0
 12 11  2  0  0  0  0
 13 22  1  0  0  0  0
 13 24  1  0  0  0  0
 16  5  1  0  0  0  0
 17  5  1  0  0  0  0
 23 13  1  0  0  0  0
M  END
