54.2611
 OpenBabel10231816213D

 40 42  0  0  0  0  0  0  0  0999 V2000
    6.8962    1.0838    1.6267 O   0  0  0  0  0  0  0  0  0  0  0  0
    5.7882    1.4655    2.0174 C   0  0  0  0  0  0  0  0  0  0  0  0
    5.6527    2.5928    3.0097 C   0  0  0  0  0  0  0  0  0  0  0  0
    4.5539    0.8087    1.5079 C   0  0  0  0  0  0  0  0  0  0  0  0
    3.2717    1.1966    1.9135 C   0  0  0  0  0  0  0  0  0  0  0  0
    2.1421    0.5445    1.4017 C   0  0  0  0  0  0  0  0  0  0  0  0
    2.2739   -0.4975    0.4837 C   0  0  0  0  0  0  0  0  0  0  0  0
    3.5562   -0.8872    0.0806 C   0  0  0  0  0  0  0  0  0  0  0  0
    4.6867   -0.2372    0.5876 C   0  0  0  0  0  0  0  0  0  0  0  0
    1.1819   -1.2014   -0.0669 N   0  0  0  0  0  0  0  0  0  0  0  0
   -0.1716   -0.9450    0.1263 C   0  0  0  0  0  0  0  0  0  0  0  0
   -0.6142   -0.0026    0.7724 O   0  0  0  0  0  0  0  0  0  0  0  0
   -1.0527   -1.9091   -0.5324 C   0  0  0  0  0  0  0  0  0  0  0  0
   -0.7903   -3.2831   -0.7694 C   0  0  0  0  0  0  0  0  0  0  0  0
   -1.8142   -3.9333   -1.3146 N   0  0  0  0  0  0  0  0  0  0  0  0
   -2.7512   -2.9849   -1.4208 N   0  0  0  0  0  0  0  0  0  0  0  0
   -2.3487   -1.7282   -1.0189 C   0  0  0  0  0  0  0  0  0  0  0  0
   -3.2377   -0.5575   -1.1826 C   0  0  0  0  0  0  0  0  0  0  0  0
   -2.6963    0.7381   -1.2160 C   0  0  0  0  0  0  0  0  0  0  0  0
   -3.5032    1.8622   -1.4151 C   0  0  0  0  0  0  0  0  0  0  0  0
   -2.7718    3.4234   -1.4474 Cl  0  0  0  0  0  0  0  0  0  0  0  0
   -4.8699    1.7015   -1.5979 C   0  0  0  0  0  0  0  0  0  0  0  0
   -5.6406    2.8048   -1.8033 O   0  0  0  0  0  0  0  0  0  0  0  0
   -5.4464    0.4305   -1.5746 C   0  0  0  0  0  0  0  0  0  0  0  0
   -4.6270   -0.6864   -1.3700 C   0  0  0  0  0  0  0  0  0  0  0  0
   -5.1943   -1.9385   -1.3654 O   0  0  0  0  0  0  0  0  0  0  0  0
    5.0866    3.4212    2.5715 H   0  0  0  0  0  0  0  0  0  0  0  0
    6.6462    2.9555    3.2743 H   0  0  0  0  0  0  0  0  0  0  0  0
    5.1584    2.2410    3.9213 H   0  0  0  0  0  0  0  0  0  0  0  0
    3.1174    1.9998    2.6258 H   0  0  0  0  0  0  0  0  0  0  0  0
    1.1644    0.8724    1.7413 H   0  0  0  0  0  0  0  0  0  0  0  0
    3.6939   -1.6953   -0.6324 H   0  0  0  0  0  0  0  0  0  0  0  0
    5.6806   -0.5455    0.2656 H   0  0  0  0  0  0  0  0  0  0  0  0
    1.4229   -1.9350   -0.7199 H   0  0  0  0  0  0  0  0  0  0  0  0
    0.1046   -3.8451   -0.5447 H   0  0  0  0  0  0  0  0  0  0  0  0
   -3.6686   -3.2409   -1.7854 H   0  0  0  0  0  0  0  0  0  0  0  0
   -1.6336    0.8963   -1.0916 H   0  0  0  0  0  0  0  0  0  0  0  0
   -6.5746    2.5665   -1.8960 H   0  0  0  0  0  0  0  0  0  0  0  0
   -6.5117    0.3100   -1.7178 H   0  0  0  0  0  0  0  0  0  0  0  0
   -6.1600   -1.8617   -1.4442 H   0  0  0  0  0  0  0  0  0  0  0  0
  1  2  2  0  0  0  0
  2  3  1  0  0  0  0
  3 28  1  0  0  0  0
  3 29  1  0  0  0  0
  4  5  1  0  0  0  0
  4  2  1  0  0  0  0
  5 30  1  0  0  0  0
  6 31  1  0  0  0  0
  6  5  2  0  0  0  0
  7  6  1  0  0  0  0
  8  7  2  0  0  0  0
  8  9  1  0  0  0  0
  9  4  2  0  0  0  0
 10 11  1  0  0  0  0
 10  7  1  0  0  0  0
 11 12  2  0  0  0  0
 13 11  1  0  0  0  0
 14 35  1  0  0  0  0
 14 13  1  0  0  0  0
 15 14  2  0  0  0  0
 16 15  1  0  0  0  0
 16 17  1  0  0  0  0
 17 13  2  0  0  0  0
 18 17  1  0  0  0  0
 19 18  1  0  0  0  0
 19 37  1  0  0  0  0
 20 19  2  0  0  0  0
 21 20  1  0  0  0  0
 22 24  2  0  0  0  0
 22 20  1  0  0  0  0
 23 22  1  0  0  0  0
 24 25  1  0  0  0  0
 25 26  1  0  0  0  0
 25 18  2  0  0  0  0
 27  3  1  0  0  0  0
 32  8  1  0  0  0  0
 33  9  1  0  0  0  0
 34 10  1  0  0  0  0
 36 16  1  0  0  0  0
 38 23  1  0  0  0  0
 39 24  1  0  0  0  0
 40 26  1  0  0  0  0
M  END
