121.905
 OpenBabel10231816213D

 34 35  0  0  1  0  0  0  0  0999 V2000
   -1.1461   -0.7681   -0.3297 C   0  0  1  0  0  0  0  0  0  0  0  0
    0.1679   -0.1143   -0.3986 N   0  0  0  0  0  0  0  0  0  0  0  0
    1.1923   -0.7830    0.4070 C   0  0  0  0  0  0  0  0  0  0  0  0
    2.5583   -0.1659    0.1845 C   0  0  0  0  0  0  0  0  0  0  0  0
    2.9407    0.3262   -1.0745 C   0  0  0  0  0  0  0  0  0  0  0  0
    4.2103    0.8681   -1.2756 C   0  0  0  0  0  0  0  0  0  0  0  0
    5.1240    0.9070   -0.2275 C   0  0  0  0  0  0  0  0  0  0  0  0
    4.7700    0.4023    1.0225 C   0  0  0  0  0  0  0  0  0  0  0  0
    3.4960   -0.1336    1.2287 C   0  0  0  0  0  0  0  0  0  0  0  0
   -1.8557   -0.6416    1.0391 C   0  0  1  0  0  0  0  0  0  0  0  0
   -1.5553    0.5975    1.7027 O   0  0  0  0  0  0  0  0  0  0  0  0
   -3.3422   -0.6778    0.6746 C   0  0  1  0  0  0  0  0  0  0  0  0
   -4.1606   -0.1510    1.7184 O   0  0  0  0  0  0  0  0  0  0  0  0
   -3.4043    0.2183   -0.5640 C   0  0  1  0  0  0  0  0  0  0  0  0
   -3.3390    1.5956   -0.1434 O   0  0  0  0  0  0  0  0  0  0  0  0
   -2.1313   -0.1215   -1.3552 C   0  0  2  0  0  0  0  0  0  0  0  0
   -2.5003   -1.2613   -2.7413 S   0  0  0  0  0  0  0  0  0  0  0  0
   -1.0316   -1.8362   -0.5587 H   0  0  0  0  0  0  0  0  0  0  0  0
    0.0911    0.8421   -0.0465 H   0  0  0  0  0  0  0  0  0  0  0  0
    0.9319   -0.7049    1.4696 H   0  0  0  0  0  0  0  0  0  0  0  0
    1.2581   -1.8462    0.1489 H   0  0  0  0  0  0  0  0  0  0  0  0
    2.2409    0.2945   -1.9086 H   0  0  0  0  0  0  0  0  0  0  0  0
    4.4814    1.2581   -2.2536 H   0  0  0  0  0  0  0  0  0  0  0  0
    6.1145    1.3256   -0.3856 H   0  0  0  0  0  0  0  0  0  0  0  0
    5.4874    0.4230    1.8381 H   0  0  0  0  0  0  0  0  0  0  0  0
    3.2389   -0.5251    2.2083 H   0  0  0  0  0  0  0  0  0  0  0  0
   -1.5812   -1.4481    1.7268 H   0  0  0  0  0  0  0  0  0  0  0  0
   -1.8538    1.3226    1.1113 H   0  0  0  0  0  0  0  0  0  0  0  0
   -3.6650   -1.6968    0.4340 H   0  0  0  0  0  0  0  0  0  0  0  0
   -3.5465    0.2287    2.3810 H   0  0  0  0  0  0  0  0  0  0  0  0
   -4.3377    0.1050   -1.1241 H   0  0  0  0  0  0  0  0  0  0  0  0
   -4.1148    1.7130    0.4434 H   0  0  0  0  0  0  0  0  0  0  0  0
   -1.7022    0.7854   -1.7980 H   0  0  0  0  0  0  0  0  0  0  0  0
   -3.0361   -0.3376   -3.5541 H   0  0  0  0  0  0  0  0  0  0  0  0
  1 18  1  6  0  0  0
  1 10  1  0  0  0  0
  2  1  1  0  0  0  0
  2 19  1  0  0  0  0
  2  3  1  0  0  0  0
  3 20  1  0  0  0  0
  4  3  1  0  0  0  0
  4  9  2  0  0  0  0
  5  4  1  0  0  0  0
  6  5  2  0  0  0  0
  6  7  1  0  0  0  0
  7  8  2  0  0  0  0
  8  9  1  0  0  0  0
  8 25  1  0  0  0  0
  9 26  1  0  0  0  0
 10 11  1  0  0  0  0
 10 27  1  1  0  0  0
 12 29  1  6  0  0  0
 12 10  1  0  0  0  0
 12 13  1  0  0  0  0
 13 30  1  0  0  0  0
 14 31  1  6  0  0  0
 14 15  1  0  0  0  0
 14 12  1  0  0  0  0
 15 32  1  0  0  0  0
 16 33  1  6  0  0  0
 16 14  1  0  0  0  0
 16  1  1  0  0  0  0
 17 16  1  0  0  0  0
 21  3  1  0  0  0  0
 22  5  1  0  0  0  0
 23  6  1  0  0  0  0
 24  7  1  0  0  0  0
 28 11  1  0  0  0  0
 34 17  1  0  0  0  0
M  END
