127.138
 OpenBabel10231816213D

 34 35  0  0  1  0  0  0  0  0999 V2000
   -1.2118   -0.9200   -0.1325 C   0  0  1  0  0  0  0  0  0  0  0  0
    0.2383   -0.9116   -0.1866 N   0  0  0  0  0  0  0  0  0  0  0  0
    0.8980    0.4042   -0.1657 C   0  0  0  0  0  0  0  0  0  0  0  0
    2.4077    0.2664   -0.0826 C   0  0  0  0  0  0  0  0  0  0  0  0
    3.2317    1.2535   -0.6430 C   0  0  0  0  0  0  0  0  0  0  0  0
    4.6244    1.1521   -0.5410 C   0  0  0  0  0  0  0  0  0  0  0  0
    5.2043    0.0799    0.1273 C   0  0  0  0  0  0  0  0  0  0  0  0
    4.3918   -0.9032    0.6945 C   0  0  0  0  0  0  0  0  0  0  0  0
    3.0091   -0.8004    0.5913 C   0  0  0  0  0  0  0  0  0  0  0  0
   -1.8700   -0.4777    1.1932 C   0  0  1  0  0  0  0  0  0  0  0  0
   -1.5268    0.8417    1.6359 O   0  0  0  0  0  0  0  0  0  0  0  0
   -3.3471   -0.4539    0.7870 C   0  0  1  0  0  0  0  0  0  0  0  0
   -4.1374    0.2898    1.7144 O   0  0  0  0  0  0  0  0  0  0  0  0
   -3.3038    0.2575   -0.5825 C   0  0  1  0  0  0  0  0  0  0  0  0
   -3.2482    1.6760   -0.3347 O   0  0  0  0  0  0  0  0  0  0  0  0
   -1.9580   -0.1336   -1.2306 C   0  0  2  0  0  0  0  0  0  0  0  0
   -2.0934   -1.0438   -2.8043 S   0  0  0  0  0  0  0  0  0  0  0  0
   -1.4804   -1.9840   -0.2293 H   0  0  0  0  0  0  0  0  0  0  0  0
    0.5631   -1.4162   -1.0068 H   0  0  0  0  0  0  0  0  0  0  0  0
    0.5693    0.9831    0.6950 H   0  0  0  0  0  0  0  0  0  0  0  0
    0.6591    0.9725   -1.0705 H   0  0  0  0  0  0  0  0  0  0  0  0
    2.7963    2.0930   -1.1657 H   0  0  0  0  0  0  0  0  0  0  0  0
    5.2527    1.9213   -0.9892 H   0  0  0  0  0  0  0  0  0  0  0  0
    6.2855    0.0047    0.2100 H   0  0  0  0  0  0  0  0  0  0  0  0
    4.8352   -1.7451    1.2179 H   0  0  0  0  0  0  0  0  0  0  0  0
    2.3827   -1.5800    1.0360 H   0  0  0  0  0  0  0  0  0  0  0  0
   -1.6543   -1.1618    2.0165 H   0  0  0  0  0  0  0  0  0  0  0  0
   -1.8592    1.4778    0.9646 H   0  0  0  0  0  0  0  0  0  0  0  0
   -3.7587   -1.4619    0.6893 H   0  0  0  0  0  0  0  0  0  0  0  0
   -3.4992    0.7070    2.3367 H   0  0  0  0  0  0  0  0  0  0  0  0
   -4.1838    0.0529   -1.1958 H   0  0  0  0  0  0  0  0  0  0  0  0
   -3.9849    1.8544    0.2939 H   0  0  0  0  0  0  0  0  0  0  0  0
   -1.4240    0.7842   -1.4932 H   0  0  0  0  0  0  0  0  0  0  0  0
   -2.8082   -2.0791   -2.3495 H   0  0  0  0  0  0  0  0  0  0  0  0
  1 18  1  6  0  0  0
  1 10  1  0  0  0  0
  2  3  1  0  0  0  0
  2  1  1  0  0  0  0
  3  4  1  0  0  0  0
  3 20  1  0  0  0  0
  4  9  2  0  0  0  0
  5  6  2  0  0  0  0
  5  4  1  0  0  0  0
  6  7  1  0  0  0  0
  7 24  1  0  0  0  0
  7  8  2  0  0  0  0
  8 25  1  0  0  0  0
  9  8  1  0  0  0  0
  9 26  1  0  0  0  0
 10 11  1  0  0  0  0
 10 27  1  1  0  0  0
 12 29  1  6  0  0  0
 12 10  1  0  0  0  0
 12 13  1  0  0  0  0
 13 30  1  0  0  0  0
 14 31  1  6  0  0  0
 14 15  1  0  0  0  0
 14 12  1  0  0  0  0
 15 32  1  0  0  0  0
 16 33  1  6  0  0  0
 16 14  1  0  0  0  0
 16  1  1  0  0  0  0
 17 34  1  0  0  0  0
 17 16  1  0  0  0  0
 19  2  1  0  0  0  0
 21  3  1  0  0  0  0
 22  5  1  0  0  0  0
 23  6  1  0  0  0  0
 28 11  1  0  0  0  0
M  END
