44.5735
 OpenBabel10231816213D

 25 25  0  0  1  0  0  0  0  0999 V2000
   -1.7616   -3.4714   -1.7311 O   0  0  0  0  0  0  0  0  0  0  0  0
   -0.9669   -2.3878   -1.5739 C   0  0  0  0  0  0  0  0  0  0  0  0
    0.0852   -2.3068   -2.2016 O   0  0  0  0  0  0  0  0  0  0  0  0
   -1.4878   -1.3743   -0.6655 C   0  0  0  0  0  0  0  0  0  0  0  0
   -2.6575   -1.5488   -0.0249 N   0  0  0  0  0  0  0  0  0  0  0  0
   -2.8405   -0.4329    0.7575 O   0  0  0  0  0  0  0  0  0  0  0  0
   -1.8076    0.4254    0.5735 C   0  0  0  0  0  0  0  0  0  0  0  0
   -0.9073   -0.1112   -0.3224 C   0  0  0  0  0  0  0  0  0  0  0  0
    0.3901    0.4754   -0.7880 C   0  0  0  0  0  0  0  0  0  0  0  0
    1.3670    0.8033    0.3547 C   0  0  2  0  0  0  0  0  0  0  0  0
    2.5723    1.5678   -0.0998 N   0  0  0  0  0  0  0  0  0  0  0  0
    1.8570   -0.4633    1.0760 C   0  0  0  0  0  0  0  0  0  0  0  0
    1.1891   -1.4455    1.3301 O   0  0  0  0  0  0  0  0  0  0  0  0
    3.1548   -0.3412    1.4716 O   0  0  0  0  0  0  0  0  0  0  0  0
   -1.8494    1.6722    1.3565 C   0  0  0  0  0  0  0  0  0  0  0  0
   -1.2753   -4.0465   -2.3545 H   0  0  0  0  0  0  0  0  0  0  0  0
    0.1594    1.3926   -1.3474 H   0  0  0  0  0  0  0  0  0  0  0  0
    0.8764   -0.1985   -1.4989 H   0  0  0  0  0  0  0  0  0  0  0  0
    0.8716    1.4109    1.1166 H   0  0  0  0  0  0  0  0  0  0  0  0
    2.3340    2.5621   -0.1517 H   0  0  0  0  0  0  0  0  0  0  0  0
    2.7899    1.2945   -1.0649 H   0  0  0  0  0  0  0  0  0  0  0  0
    3.4696    0.5220    1.1095 H   0  0  0  0  0  0  0  0  0  0  0  0
   -1.2893    2.4609    0.8447 H   0  0  0  0  0  0  0  0  0  0  0  0
   -1.3966    1.5214    2.3416 H   0  0  0  0  0  0  0  0  0  0  0  0
   -2.8769    2.0195    1.4923 H   0  0  0  0  0  0  0  0  0  0  0  0
  1  2  1  0  0  0  0
  2  4  1  0  0  0  0
  3  2  2  0  0  0  0
  4  8  1  0  0  0  0
  4  5  2  0  0  0  0
  5  6  1  0  0  0  0
  7  6  1  0  0  0  0
  7 15  1  0  0  0  0
  8  7  2  0  0  0  0
  9  8  1  0  0  0  0
  9 10  1  0  0  0  0
 10 12  1  0  0  0  0
 10 19  1  1  0  0  0
 11 10  1  0  0  0  0
 12 13  2  0  0  0  0
 12 14  1  0  0  0  0
 15 25  1  0  0  0  0
 15 24  1  0  0  0  0
 16  1  1  0  0  0  0
 17  9  1  0  0  0  0
 18  9  1  0  0  0  0
 20 11  1  0  0  0  0
 21 11  1  0  0  0  0
 22 14  1  0  0  0  0
 23 15  1  0  0  0  0
M  END
