41.3425
 OpenBabel10231816213D

 25 25  0  0  1  0  0  0  0  0999 V2000
   -1.1960   -3.4100   -1.8461 O   0  0  0  0  0  0  0  0  0  0  0  0
   -0.6158   -2.1925   -1.7192 C   0  0  0  0  0  0  0  0  0  0  0  0
    0.4098   -1.9162   -2.3340 O   0  0  0  0  0  0  0  0  0  0  0  0
   -1.3101   -1.2556   -0.8451 C   0  0  0  0  0  0  0  0  0  0  0  0
   -2.4939   -1.5875   -0.2950 N   0  0  0  0  0  0  0  0  0  0  0  0
   -2.8521   -0.5093    0.5042 O   0  0  0  0  0  0  0  0  0  0  0  0
   -1.8951    0.4555    0.4304 C   0  0  0  0  0  0  0  0  0  0  0  0
   -0.8852    0.0359   -0.4036 C   0  0  0  0  0  0  0  0  0  0  0  0
    0.4105    0.7221   -0.7004 C   0  0  0  0  0  0  0  0  0  0  0  0
    1.4133    0.6345    0.4586 C   0  0  2  0  0  0  0  0  0  0  0  0
    2.6586    1.4230    0.2376 N   0  0  0  0  0  0  0  0  0  0  0  0
    1.8264   -0.8123    0.7426 C   0  0  0  0  0  0  0  0  0  0  0  0
    1.0690   -1.7759    0.6956 O   0  0  0  0  0  0  0  0  0  0  0  0
    3.1126   -0.9408    1.1374 O   0  0  0  0  0  0  0  0  0  0  0  0
   -2.0977    1.6773    1.2309 C   0  0  0  0  0  0  0  0  0  0  0  0
   -2.0118   -3.4264   -1.2960 H   0  0  0  0  0  0  0  0  0  0  0  0
    0.8535    0.2866   -1.5980 H   0  0  0  0  0  0  0  0  0  0  0  0
    0.2034    1.7775   -0.9184 H   0  0  0  0  0  0  0  0  0  0  0  0
    0.9423    0.9994    1.3759 H   0  0  0  0  0  0  0  0  0  0  0  0
    2.8663    1.4542   -0.7681 H   0  0  0  0  0  0  0  0  0  0  0  0
    2.5168    2.3924    0.5394 H   0  0  0  0  0  0  0  0  0  0  0  0
    3.5063   -0.0396    1.0522 H   0  0  0  0  0  0  0  0  0  0  0  0
   -3.1449    1.9900    1.2163 H   0  0  0  0  0  0  0  0  0  0  0  0
   -1.7975    1.5193    2.2700 H   0  0  0  0  0  0  0  0  0  0  0  0
   -1.4888    2.4983    0.8331 H   0  0  0  0  0  0  0  0  0  0  0  0
  1  2  1  0  0  0  0
  1 16  1  0  0  0  0
  2  4  1  0  0  0  0
  3  2  2  0  0  0  0
  4  8  1  0  0  0  0
  4  5  2  0  0  0  0
  5  6  1  0  0  0  0
  7  6  1  0  0  0  0
  7 15  1  0  0  0  0
  8  7  2  0  0  0  0
  9  8  1  0  0  0  0
  9 10  1  0  0  0  0
 10 12  1  0  0  0  0
 10 19  1  1  0  0  0
 11 10  1  0  0  0  0
 11 21  1  0  0  0  0
 12 14  1  0  0  0  0
 13 12  2  0  0  0  0
 15 24  1  0  0  0  0
 17  9  1  0  0  0  0
 18  9  1  0  0  0  0
 20 11  1  0  0  0  0
 22 14  1  0  0  0  0
 23 15  1  0  0  0  0
 25 15  1  0  0  0  0
M  END
