34.2369
 OpenBabel10231816213D

 61 65  0  0  0  0  0  0  0  0999 V2000
    8.8159    0.6923   -1.4436 N   0  0  0  0  0  0  0  0  0  0  0  0
    8.4511   -0.4221   -0.7820 C   0  0  0  0  0  0  0  0  0  0  0  0
    7.2348   -0.5757   -0.1296 C   0  0  0  0  0  0  0  0  0  0  0  0
    6.3023    0.4679   -0.1359 C   0  0  0  0  0  0  0  0  0  0  0  0
    6.6851    1.6351   -0.8082 C   0  0  0  0  0  0  0  0  0  0  0  0
    7.9215    1.6987   -1.4372 C   0  0  0  0  0  0  0  0  0  0  0  0
    5.0672    0.4077    0.5395 N   0  0  0  0  0  0  0  0  0  0  0  0
    3.8963    0.7575   -0.2842 C   0  0  0  0  0  0  0  0  0  0  0  0
    2.7195    1.0876    0.6338 C   0  0  0  0  0  0  0  0  0  0  0  0
    2.3832   -0.0843    1.5624 C   0  0  0  0  0  0  0  0  0  0  0  0
    3.6400   -0.5054    2.3335 C   0  0  0  0  0  0  0  0  0  0  0  0
    4.8475   -0.7457    1.4278 C   0  0  0  0  0  0  0  0  0  0  0  0
    1.7815   -1.2651    0.7931 C   0  0  0  0  0  0  0  0  0  0  0  0
    2.4110   -2.3124    0.6344 O   0  0  0  0  0  0  0  0  0  0  0  0
    0.5210   -1.1140    0.2458 N   0  0  0  0  0  0  0  0  0  0  0  0
   -0.4239   -0.0428    0.5796 C   0  0  0  0  0  0  0  0  0  0  0  0
   -1.8731   -0.5019    0.4107 C   0  0  0  0  0  0  0  0  0  0  0  0
   -2.1514   -0.9262   -0.9993 N   0  0  0  0  0  0  0  0  0  0  0  0
   -1.0003   -1.6474   -1.6451 C   0  0  0  0  0  0  0  0  0  0  0  0
    0.0015   -2.1818   -0.6181 C   0  0  0  0  0  0  0  0  0  0  0  0
   -2.7988    0.2935   -2.0069 S   0  0  0  0  0  0  0  0  0  0  0  0
   -1.9369    1.4481   -1.8754 O   0  0  0  0  0  0  0  0  0  0  0  0
   -3.0939   -0.2933   -3.2951 O   0  0  0  0  0  0  0  0  0  0  0  0
   -4.3411    0.6536   -1.2195 C   0  0  0  0  0  0  0  0  0  0  0  0
   -5.1949   -0.4019   -0.8819 C   0  0  0  0  0  0  0  0  0  0  0  0
   -6.3949   -0.1391   -0.2096 C   0  0  0  0  0  0  0  0  0  0  0  0
   -6.7243    1.1995    0.1241 C   0  0  0  0  0  0  0  0  0  0  0  0
   -5.8404    2.2387   -0.2098 C   0  0  0  0  0  0  0  0  0  0  0  0
   -4.6471    1.9688   -0.8774 C   0  0  0  0  0  0  0  0  0  0  0  0
   -7.9309    1.4661    0.7843 C   0  0  0  0  0  0  0  0  0  0  0  0
   -8.7964    0.4219    1.1116 C   0  0  0  0  0  0  0  0  0  0  0  0
   -8.4731   -0.8944    0.7971 C   0  0  0  0  0  0  0  0  0  0  0  0
   -7.2751   -1.1759    0.1388 C   0  0  0  0  0  0  0  0  0  0  0  0
  -10.2818    0.7714    1.9073 Cl  0  0  0  0  0  0  0  0  0  0  0  0
    9.1845   -1.2232   -0.7811 H   0  0  0  0  0  0  0  0  0  0  0  0
    7.0425   -1.5210    0.3636 H   0  0  0  0  0  0  0  0  0  0  0  0
    6.0491    2.5124   -0.8208 H   0  0  0  0  0  0  0  0  0  0  0  0
    8.2336    2.5985   -1.9584 H   0  0  0  0  0  0  0  0  0  0  0  0
    4.0708    1.6357   -0.9146 H   0  0  0  0  0  0  0  0  0  0  0  0
    3.6427   -0.0722   -0.9566 H   0  0  0  0  0  0  0  0  0  0  0  0
    2.9777    1.9613    1.2474 H   0  0  0  0  0  0  0  0  0  0  0  0
    1.8651    1.3826    0.0200 H   0  0  0  0  0  0  0  0  0  0  0  0
    1.6536    0.2373    2.3125 H   0  0  0  0  0  0  0  0  0  0  0  0
    3.4428   -1.4078    2.9244 H   0  0  0  0  0  0  0  0  0  0  0  0
    3.8907    0.2896    3.0480 H   0  0  0  0  0  0  0  0  0  0  0  0
    5.7105   -0.8901    2.0886 H   0  0  0  0  0  0  0  0  0  0  0  0
    4.7235   -1.6614    0.8388 H   0  0  0  0  0  0  0  0  0  0  0  0
   -0.2135    0.7932   -0.0927 H   0  0  0  0  0  0  0  0  0  0  0  0
   -0.2709    0.3004    1.6049 H   0  0  0  0  0  0  0  0  0  0  0  0
   -2.5537    0.2903    0.7353 H   0  0  0  0  0  0  0  0  0  0  0  0
   -2.0789   -1.3614    1.0613 H   0  0  0  0  0  0  0  0  0  0  0  0
   -0.4672   -0.9678   -2.3217 H   0  0  0  0  0  0  0  0  0  0  0  0
   -1.4022   -2.4760   -2.2378 H   0  0  0  0  0  0  0  0  0  0  0  0
   -0.4755   -2.9223    0.0349 H   0  0  0  0  0  0  0  0  0  0  0  0
    0.8259   -2.6822   -1.1378 H   0  0  0  0  0  0  0  0  0  0  0  0
   -4.9165   -1.4219   -1.1411 H   0  0  0  0  0  0  0  0  0  0  0  0
   -6.0761    3.2697    0.0481 H   0  0  0  0  0  0  0  0  0  0  0  0
   -3.9680    2.7844   -1.1202 H   0  0  0  0  0  0  0  0  0  0  0  0
   -8.2030    2.4871    1.0394 H   0  0  0  0  0  0  0  0  0  0  0  0
   -9.1506   -1.7038    1.0557 H   0  0  0  0  0  0  0  0  0  0  0  0
   -7.0376   -2.2103   -0.1051 H   0  0  0  0  0  0  0  0  0  0  0  0
  1  6  2  0  0  0  0
  1  2  1  0  0  0  0
  2 35  1  0  0  0  0
  2  3  2  0  0  0  0
  3 36  1  0  0  0  0
  4  3  1  0  0  0  0
  4  7  1  0  0  0  0
  5  4  2  0  0  0  0
  6  5  1  0  0  0  0
  7 12  1  0  0  0  0
  8  7  1  0  0  0  0
  8  9  1  0  0  0  0
  9 41  1  0  0  0  0
  9 10  1  0  0  0  0
 10 43  1  0  0  0  0
 10 11  1  0  0  0  0
 11 44  1  0  0  0  0
 11 45  1  0  0  0  0
 12 46  1  0  0  0  0
 12 11  1  0  0  0  0
 13 10  1  0  0  0  0
 14 13  2  0  0  0  0
 15 16  1  0  0  0  0
 15 13  1  0  0  0  0
 16 49  1  0  0  0  0
 17 16  1  0  0  0  0
 17 50  1  0  0  0  0
 17 51  1  0  0  0  0
 18 17  1  0  0  0  0
 19 18  1  0  0  0  0
 19 20  1  0  0  0  0
 20 54  1  0  0  0  0
 20 15  1  0  0  0  0
 21 22  2  0  0  0  0
 21 24  1  0  0  0  0
 21 18  1  0  0  0  0
 23 21  2  0  0  0  0
 24 25  2  0  0  0  0
 24 29  1  0  0  0  0
 25 26  1  0  0  0  0
 26 27  2  0  0  0  0
 26 33  1  0  0  0  0
 27 30  1  0  0  0  0
 28 57  1  0  0  0  0
 28 27  1  0  0  0  0
 29 28  2  0  0  0  0
 30 59  1  0  0  0  0
 30 31  2  0  0  0  0
 31 34  1  0  0  0  0
 32 60  1  0  0  0  0
 32 31  1  0  0  0  0
 33 32  2  0  0  0  0
 37  5  1  0  0  0  0
 38  6  1  0  0  0  0
 39  8  1  0  0  0  0
 40  8  1  0  0  0  0
 42  9  1  0  0  0  0
 47 12  1  0  0  0  0
 48 16  1  0  0  0  0
 52 19  1  0  0  0  0
 53 19  1  0  0  0  0
 55 20  1  0  0  0  0
 56 25  1  0  0  0  0
 58 29  1  0  0  0  0
 61 33  1  0  0  0  0
M  END
