48.8131
 OpenBabel10231816213D

 25 25  0  0  1  0  0  0  0  0999 V2000
    0.1074   -2.7807   -0.6969 O   0  0  0  0  0  0  0  0  0  0  0  0
   -1.2003   -2.7096   -0.3382 C   0  0  0  0  0  0  0  0  0  0  0  0
   -1.8450   -3.7500   -0.2593 O   0  0  0  0  0  0  0  0  0  0  0  0
   -1.6826   -1.3533   -0.0722 C   0  0  0  0  0  0  0  0  0  0  0  0
   -2.9346   -1.1636    0.3818 N   0  0  0  0  0  0  0  0  0  0  0  0
   -3.0884    0.1933    0.5522 O   0  0  0  0  0  0  0  0  0  0  0  0
   -1.9442    0.8289    0.2047 C   0  0  0  0  0  0  0  0  0  0  0  0
   -1.0098   -0.0963   -0.2110 C   0  0  0  0  0  0  0  0  0  0  0  0
    0.3764    0.1930   -0.6891 C   0  0  0  0  0  0  0  0  0  0  0  0
    1.4557    0.0334    0.3954 C   0  0  2  0  0  0  0  0  0  0  0  0
    1.2914    0.9580    1.5427 N   0  0  0  0  0  0  0  0  0  0  0  0
    2.8090    0.2932   -0.2660 C   0  0  0  0  0  0  0  0  0  0  0  0
    3.4017    1.3613   -0.3111 O   0  0  0  0  0  0  0  0  0  0  0  0
    3.3068   -0.7885   -0.8969 O   0  0  0  0  0  0  0  0  0  0  0  0
   -1.9423    2.2988    0.3421 C   0  0  0  0  0  0  0  0  0  0  0  0
    0.2449   -3.7456   -0.8111 H   0  0  0  0  0  0  0  0  0  0  0  0
    0.6041   -0.4526   -1.5468 H   0  0  0  0  0  0  0  0  0  0  0  0
    0.4127    1.2131   -1.0969 H   0  0  0  0  0  0  0  0  0  0  0  0
    1.4586   -0.9822    0.8051 H   0  0  0  0  0  0  0  0  0  0  0  0
    1.5068    1.9093    1.2370 H   0  0  0  0  0  0  0  0  0  0  0  0
    0.3253    0.9543    1.8635 H   0  0  0  0  0  0  0  0  0  0  0  0
    4.1598   -0.4714   -1.2623 H   0  0  0  0  0  0  0  0  0  0  0  0
   -2.3542    2.7668   -0.5565 H   0  0  0  0  0  0  0  0  0  0  0  0
   -2.5346    2.6140    1.2062 H   0  0  0  0  0  0  0  0  0  0  0  0
   -0.9246    2.6763    0.4835 H   0  0  0  0  0  0  0  0  0  0  0  0
  1  2  1  0  0  0  0
  2  3  2  0  0  0  0
  2  4  1  0  0  0  0
  4  5  2  0  0  0  0
  5  6  1  0  0  0  0
  7 15  1  0  0  0  0
  7  6  1  0  0  0  0
  8  4  1  0  0  0  0
  8  7  2  0  0  0  0
  9  8  1  0  0  0  0
  9 10  1  0  0  0  0
 10 19  1  1  0  0  0
 10 11  1  0  0  0  0
 11 21  1  0  0  0  0
 12 10  1  0  0  0  0
 13 12  2  0  0  0  0
 14 12  1  0  0  0  0
 15 25  1  0  0  0  0
 15 24  1  0  0  0  0
 16  1  1  0  0  0  0
 17  9  1  0  0  0  0
 18  9  1  0  0  0  0
 20 11  1  0  0  0  0
 22 14  1  0  0  0  0
 23 15  1  0  0  0  0
M  END
