76.8843
 OpenBabel10231816213D

 50 52  0  0  1  0  0  0  0  0999 V2000
    5.3109    3.1513   -0.2082 O   0  0  0  0  0  0  0  0  0  0  0  0
    5.2878    1.8113   -0.3978 C   0  0  0  0  0  0  0  0  0  0  0  0
    6.0689    1.2744   -1.1624 O   0  0  0  0  0  0  0  0  0  0  0  0
    4.2444    1.0802    0.4298 C   0  0  1  0  0  0  0  0  0  0  0  0
    2.8479    1.4067   -0.1202 C   0  0  0  0  0  0  0  0  0  0  0  0
    2.4481    0.3995   -1.2014 C   0  0  0  0  0  0  0  0  0  0  0  0
    2.2231   -1.0148   -0.5965 C   0  0  2  0  0  0  0  0  0  0  0  0
    3.1918   -1.2193    0.6101 C   0  0  0  0  0  0  0  0  0  0  0  0
    4.4991   -0.4425    0.4207 C   0  0  0  0  0  0  0  0  0  0  0  0
    2.5740   -1.9994   -1.6681 C   0  0  0  0  0  0  0  0  0  0  0  0
    2.8372   -2.7806   -2.4748 N   0  0  0  0  0  0  0  0  0  0  0  0
    0.7854   -1.2855   -0.1282 C   0  0  0  0  0  0  0  0  0  0  0  0
    0.4330   -2.5860    0.2767 C   0  0  0  0  0  0  0  0  0  0  0  0
   -0.8475   -2.8766    0.7514 C   0  0  0  0  0  0  0  0  0  0  0  0
   -1.8114   -1.8718    0.8197 C   0  0  0  0  0  0  0  0  0  0  0  0
   -3.0854   -2.0253    1.2792 O   0  0  0  0  0  0  0  0  0  0  0  0
   -3.4690   -3.3175    1.7079 C   0  0  0  0  0  0  0  0  0  0  0  0
   -1.4830   -0.5847    0.3898 C   0  0  0  0  0  0  0  0  0  0  0  0
   -0.2020   -0.2898   -0.0702 C   0  0  0  0  0  0  0  0  0  0  0  0
   -2.3569    0.4603    0.5324 O   0  0  0  0  0  0  0  0  0  0  0  0
   -3.4188    0.4598   -0.4386 C   0  0  0  0  0  0  0  0  0  0  0  0
   -3.1014    1.4926   -1.5190 C   0  0  0  0  0  0  0  0  0  0  0  0
   -3.3512    2.8454   -0.8389 C   0  0  0  0  0  0  0  0  0  0  0  0
   -4.2960    2.5571    0.3401 C   0  0  0  0  0  0  0  0  0  0  0  0
   -4.6499    1.0697    0.2303 C   0  0  0  0  0  0  0  0  0  0  0  0
    4.6500    3.4577    0.4445 H   0  0  0  0  0  0  0  0  0  0  0  0
    4.3297    1.4420    1.4600 H   0  0  0  0  0  0  0  0  0  0  0  0
    2.8149    2.4200   -0.5301 H   0  0  0  0  0  0  0  0  0  0  0  0
    2.1246    1.3773    0.7048 H   0  0  0  0  0  0  0  0  0  0  0  0
    3.2597    0.3557   -1.9366 H   0  0  0  0  0  0  0  0  0  0  0  0
    1.5717    0.7296   -1.7610 H   0  0  0  0  0  0  0  0  0  0  0  0
    2.7102   -0.8714    1.5313 H   0  0  0  0  0  0  0  0  0  0  0  0
    3.4039   -2.2886    0.7561 H   0  0  0  0  0  0  0  0  0  0  0  0
    5.2162   -0.7059    1.2064 H   0  0  0  0  0  0  0  0  0  0  0  0
    4.9622   -0.7539   -0.5246 H   0  0  0  0  0  0  0  0  0  0  0  0
    1.1643   -3.3930    0.2273 H   0  0  0  0  0  0  0  0  0  0  0  0
   -1.0582   -3.8946    1.0618 H   0  0  0  0  0  0  0  0  0  0  0  0
   -4.5115   -3.2398    2.0231 H   0  0  0  0  0  0  0  0  0  0  0  0
   -2.8691   -3.6429    2.5630 H   0  0  0  0  0  0  0  0  0  0  0  0
   -3.4063   -4.0434    0.8908 H   0  0  0  0  0  0  0  0  0  0  0  0
   -0.0056    0.7352   -0.3717 H   0  0  0  0  0  0  0  0  0  0  0  0
   -3.6315   -0.5320   -0.8573 H   0  0  0  0  0  0  0  0  0  0  0  0
   -2.0765    1.4035   -1.8926 H   0  0  0  0  0  0  0  0  0  0  0  0
   -3.7819    1.3724   -2.3712 H   0  0  0  0  0  0  0  0  0  0  0  0
   -2.4096    3.2754   -0.4745 H   0  0  0  0  0  0  0  0  0  0  0  0
   -3.7771    3.5724   -1.5397 H   0  0  0  0  0  0  0  0  0  0  0  0
   -3.7786    2.7540    1.2883 H   0  0  0  0  0  0  0  0  0  0  0  0
   -5.1867    3.1942    0.3288 H   0  0  0  0  0  0  0  0  0  0  0  0
   -4.8540    0.6197    1.2076 H   0  0  0  0  0  0  0  0  0  0  0  0
   -5.5401    0.9417   -0.3982 H   0  0  0  0  0  0  0  0  0  0  0  0
  1 26  1  0  0  0  0
  2  1  1  0  0  0  0
  2  4  1  0  0  0  0
  3  2  2  0  0  0  0
  4 27  1  1  0  0  0
  5  4  1  0  0  0  0
  5 29  1  0  0  0  0
  6  7  1  0  0  0  0
  6  5  1  0  0  0  0
  7 10  1  6  0  0  0
  7 12  1  0  0  0  0
  7  8  1  0  0  0  0
  8 33  1  0  0  0  0
  8 32  1  0  0  0  0
  9  4  1  0  0  0  0
  9  8  1  0  0  0  0
  9 34  1  0  0  0  0
 11 10  3  0  0  0  0
 12 19  2  0  0  0  0
 12 13  1  0  0  0  0
 13 14  2  0  0  0  0
 14 15  1  0  0  0  0
 14 37  1  0  0  0  0
 15 16  1  0  0  0  0
 16 17  1  0  0  0  0
 17 38  1  0  0  0  0
 17 39  1  0  0  0  0
 18 20  1  0  0  0  0
 18 15  2  0  0  0  0
 19 18  1  0  0  0  0
 21 25  1  0  0  0  0
 21 20  1  0  0  0  0
 22 23  1  0  0  0  0
 22 21  1  0  0  0  0
 23 45  1  0  0  0  0
 23 24  1  0  0  0  0
 24 47  1  0  0  0  0
 25 24  1  0  0  0  0
 25 49  1  0  0  0  0
 28  5  1  0  0  0  0
 30  6  1  0  0  0  0
 31  6  1  0  0  0  0
 35  9  1  0  0  0  0
 36 13  1  0  0  0  0
 40 17  1  0  0  0  0
 41 19  1  0  0  0  0
 42 21  1  0  0  0  0
 43 22  1  0  0  0  0
 44 22  1  0  0  0  0
 46 23  1  0  0  0  0
 48 24  1  0  0  0  0
 50 25  1  0  0  0  0
M  END
