58.6462
 OpenBabel10231816213D

 36 36  0  0  1  0  0  0  0  0999 V2000
    3.5567    1.3463   -0.1397 C   0  0  0  0  0  0  0  0  0  0  0  0
    2.6218    2.4423   -0.5599 C   0  0  0  0  0  0  0  0  0  0  0  0
    2.3182    1.0135   -0.9225 C   0  0  0  0  0  0  0  0  0  0  0  0
    1.1951    0.3558   -0.2778 N   0  0  0  0  0  0  0  0  0  0  0  0
    1.4664   -1.0234    0.1552 C   0  0  0  0  0  0  0  0  0  0  0  0
    0.3682   -1.5482    1.1273 C   0  0  0  0  0  0  0  0  0  0  0  0
   -0.9171   -2.0562    0.3865 C   0  0  1  0  0  0  0  0  0  0  0  0
   -1.9186   -2.5954    1.3416 N   0  0  0  0  0  0  0  0  0  0  0  0
   -1.5870   -1.0833   -0.5963 C   0  0  0  0  0  0  0  0  0  0  0  0
   -2.3112    0.1120    0.0309 C   0  0  0  0  0  0  0  0  0  0  0  0
   -2.7398    1.1399   -1.0211 C   0  0  0  0  0  0  0  0  0  0  0  0
   -1.5830    1.9967   -1.5165 C   0  0  0  0  0  0  0  0  0  0  0  0
    0.1101   -0.5274    2.0856 O   0  0  0  0  0  0  0  0  0  0  0  0
    0.8659   -2.6436    1.9097 O   0  0  0  0  0  0  0  0  0  0  0  0
    4.5065    1.2545   -0.6515 H   0  0  0  0  0  0  0  0  0  0  0  0
    3.5943    1.0876    0.9142 H   0  0  0  0  0  0  0  0  0  0  0  0
    2.9362    3.1065   -1.3465 H   0  0  0  0  0  0  0  0  0  0  0  0
    2.0273    2.9195    0.2047 H   0  0  0  0  0  0  0  0  0  0  0  0
    2.4596    0.7439   -1.9674 H   0  0  0  0  0  0  0  0  0  0  0  0
    0.8366    0.8731    0.5296 H   0  0  0  0  0  0  0  0  0  0  0  0
    2.4251   -1.0559    0.6881 H   0  0  0  0  0  0  0  0  0  0  0  0
    1.5615   -1.6898   -0.7097 H   0  0  0  0  0  0  0  0  0  0  0  0
   -0.5968   -2.9214   -0.2104 H   0  0  0  0  0  0  0  0  0  0  0  0
   -1.4171   -3.2468    1.9513 H   0  0  0  0  0  0  0  0  0  0  0  0
   -2.2503   -1.8426    1.9398 H   0  0  0  0  0  0  0  0  0  0  0  0
   -0.8463   -0.7479   -1.3265 H   0  0  0  0  0  0  0  0  0  0  0  0
   -2.3190   -1.6474   -1.1918 H   0  0  0  0  0  0  0  0  0  0  0  0
   -1.6968    0.6042    0.7900 H   0  0  0  0  0  0  0  0  0  0  0  0
   -3.2116   -0.2521    0.5391 H   0  0  0  0  0  0  0  0  0  0  0  0
   -3.4966    1.7988   -0.5830 H   0  0  0  0  0  0  0  0  0  0  0  0
   -3.2101    0.6301   -1.8698 H   0  0  0  0  0  0  0  0  0  0  0  0
   -1.1569    2.5876   -0.6987 H   0  0  0  0  0  0  0  0  0  0  0  0
   -0.7857    1.3915   -1.9547 H   0  0  0  0  0  0  0  0  0  0  0  0
   -1.9281    2.6892   -2.2898 H   0  0  0  0  0  0  0  0  0  0  0  0
   -0.4318   -0.9591    2.7685 H   0  0  0  0  0  0  0  0  0  0  0  0
    1.5541   -2.2526    2.4714 H   0  0  0  0  0  0  0  0  0  0  0  0
  1 16  1  0  0  0  0
  2  1  1  0  0  0  0
  2 18  1  0  0  0  0
  3  2  1  0  0  0  0
  3  4  1  0  0  0  0
  3  1  1  0  0  0  0
  4  5  1  0  0  0  0
  4 20  1  0  0  0  0
  5 21  1  0  0  0  0
  5  6  1  0  0  0  0
  6 14  1  0  0  0  0
  6 13  1  0  0  0  0
  7 23  1  6  0  0  0
  7  6  1  0  0  0  0
  7  8  1  0  0  0  0
  8 25  1  0  0  0  0
  8 24  1  0  0  0  0
  9 10  1  0  0  0  0
  9  7  1  0  0  0  0
 10 29  1  0  0  0  0
 10 28  1  0  0  0  0
 11 30  1  0  0  0  0
 11 10  1  0  0  0  0
 12 11  1  0  0  0  0
 12 32  1  0  0  0  0
 13 35  1  0  0  0  0
 14 36  1  0  0  0  0
 15  1  1  0  0  0  0
 17  2  1  0  0  0  0
 19  3  1  0  0  0  0
 22  5  1  0  0  0  0
 26  9  1  0  0  0  0
 27  9  1  0  0  0  0
 31 11  1  0  0  0  0
 33 12  1  0  0  0  0
 34 12  1  0  0  0  0
M  END
