-15.7862
 OpenBabel10231816213D

 66 68  0  0  1  0  0  0  0  0999 V2000
    0.7090   -0.2409   -1.2566 C   0  0  2  0  0  0  0  0  0  0  0  0
    0.2023   -1.2620   -2.3044 C   0  0  0  0  0  0  0  0  0  0  0  0
   -1.0030   -2.0535   -1.8184 C   0  0  0  0  0  0  0  0  0  0  0  0
   -0.9894   -2.7107   -0.5840 C   0  0  0  0  0  0  0  0  0  0  0  0
   -2.1365   -3.3373   -0.0869 C   0  0  0  0  0  0  0  0  0  0  0  0
   -3.3144   -3.3273   -0.8220 C   0  0  0  0  0  0  0  0  0  0  0  0
   -3.3255   -2.7292   -2.0823 C   0  0  0  0  0  0  0  0  0  0  0  0
   -2.1794   -2.0916   -2.5748 C   0  0  0  0  0  0  0  0  0  0  0  0
   -4.4825   -3.9022   -0.4194 O   0  0  0  0  0  0  0  0  0  0  0  0
   -4.8743   -3.7298    0.9482 C   0  0  0  0  0  0  0  0  0  0  0  0
   -5.5628   -2.3805    1.2066 C   0  0  0  0  0  0  0  0  0  0  0  0
   -4.6523   -1.1477    1.1038 C   0  0  0  0  0  0  0  0  0  0  0  0
   -3.5919   -1.1155    2.1883 C   0  0  0  0  0  0  0  0  0  0  0  0
   -3.6475   -1.8529    3.1857 O   0  0  0  0  0  0  0  0  0  0  0  0
   -2.5751   -0.2128    2.0918 N   0  0  0  0  0  0  0  0  0  0  0  0
   -2.2139    0.6320    0.9444 C   0  0  2  0  0  0  0  0  0  0  0  0
   -0.7505    0.3341    0.6116 C   0  0  0  0  0  0  0  0  0  0  0  0
    0.0645   -0.0403    1.4685 O   0  0  0  0  0  0  0  0  0  0  0  0
   -0.3967    0.5206   -0.6957 N   0  0  0  0  0  0  0  0  0  0  0  0
   -2.4146    2.1027    1.2647 C   0  0  0  0  0  0  0  0  0  0  0  0
   -2.3542    2.9391    0.0031 C   0  0  0  0  0  0  0  0  0  0  0  0
   -2.3862    2.4745   -1.1308 O   0  0  0  0  0  0  0  0  0  0  0  0
   -2.2717    4.2842    0.2109 N   0  0  0  0  0  0  0  0  0  0  0  0
    1.7579    0.6972   -1.8409 C   0  0  2  0  0  0  0  0  0  0  0  0
    2.7602   -0.0808   -2.5006 O   0  0  0  0  0  0  0  0  0  0  0  0
    2.4165    1.5338   -0.7313 C   0  0  0  0  0  0  0  0  0  0  0  0
    3.4786    2.3780   -1.3326 N   0  0  0  0  0  0  0  0  0  0  0  0
    4.5083    3.1955   -0.2610 S   0  0  0  0  0  0  0  0  0  0  0  0
    3.6875    3.7588    0.7823 O   0  0  0  0  0  0  0  0  0  0  0  0
    5.3296    4.0384   -1.1080 O   0  0  0  0  0  0  0  0  0  0  0  0
    5.5290    1.9341    0.4260 C   0  0  0  0  0  0  0  0  0  0  0  0
    5.1706    1.3469    1.6398 C   0  0  0  0  0  0  0  0  0  0  0  0
    5.9822    0.3576    2.1952 C   0  0  0  0  0  0  0  0  0  0  0  0
    7.1586   -0.0219    1.5467 C   0  0  0  0  0  0  0  0  0  0  0  0
    7.5264    0.5913    0.3466 C   0  0  0  0  0  0  0  0  0  0  0  0
    6.7148    1.5793   -0.2102 C   0  0  0  0  0  0  0  0  0  0  0  0
    1.1825   -0.8034   -0.4428 H   0  0  0  0  0  0  0  0  0  0  0  0
   -0.0721   -0.7220   -3.2223 H   0  0  0  0  0  0  0  0  0  0  0  0
    1.0168   -1.9471   -2.5777 H   0  0  0  0  0  0  0  0  0  0  0  0
   -0.0902   -2.7154    0.0276 H   0  0  0  0  0  0  0  0  0  0  0  0
   -2.0843   -3.8371    0.8727 H   0  0  0  0  0  0  0  0  0  0  0  0
   -4.2393   -2.7391   -2.6732 H   0  0  0  0  0  0  0  0  0  0  0  0
   -2.2153   -1.6107   -3.5492 H   0  0  0  0  0  0  0  0  0  0  0  0
   -4.0607   -3.9007    1.6573 H   0  0  0  0  0  0  0  0  0  0  0  0
   -5.6162   -4.5233    1.1246 H   0  0  0  0  0  0  0  0  0  0  0  0
   -5.9899   -2.4065    2.2164 H   0  0  0  0  0  0  0  0  0  0  0  0
   -6.3932   -2.2679    0.4986 H   0  0  0  0  0  0  0  0  0  0  0  0
   -5.2626   -0.2449    1.2119 H   0  0  0  0  0  0  0  0  0  0  0  0
   -4.1942   -1.1022    0.1178 H   0  0  0  0  0  0  0  0  0  0  0  0
   -1.8374   -0.3438    2.7836 H   0  0  0  0  0  0  0  0  0  0  0  0
   -2.8271    0.3544    0.0884 H   0  0  0  0  0  0  0  0  0  0  0  0
   -1.0720    0.9443   -1.3340 H   0  0  0  0  0  0  0  0  0  0  0  0
   -3.4109    2.2348    1.7007 H   0  0  0  0  0  0  0  0  0  0  0  0
   -1.6807    2.4544    1.9966 H   0  0  0  0  0  0  0  0  0  0  0  0
   -2.3685    4.6944    1.1306 H   0  0  0  0  0  0  0  0  0  0  0  0
   -2.3172    4.9043   -0.5921 H   0  0  0  0  0  0  0  0  0  0  0  0
    1.2854    1.3643   -2.5746 H   0  0  0  0  0  0  0  0  0  0  0  0
    3.5210    0.5197   -2.6117 H   0  0  0  0  0  0  0  0  0  0  0  0
    1.6656    2.1548   -0.2372 H   0  0  0  0  0  0  0  0  0  0  0  0
    2.8787    0.8633   -0.0064 H   0  0  0  0  0  0  0  0  0  0  0  0
    3.1167    3.0895   -1.9725 H   0  0  0  0  0  0  0  0  0  0  0  0
    4.2570    1.6561    2.1418 H   0  0  0  0  0  0  0  0  0  0  0  0
    5.6966   -0.1140    3.1325 H   0  0  0  0  0  0  0  0  0  0  0  0
    7.7927   -0.7928    1.9793 H   0  0  0  0  0  0  0  0  0  0  0  0
    8.4458    0.3027   -0.1554 H   0  0  0  0  0  0  0  0  0  0  0  0
    6.9991    2.0727   -1.1354 H   0  0  0  0  0  0  0  0  0  0  0  0
  1 19  1  0  0  0  0
  1 37  1  1  0  0  0
  2  3  1  0  0  0  0
  2  1  1  0  0  0  0
  3  4  2  0  0  0  0
  4  5  1  0  0  0  0
  4 40  1  0  0  0  0
  5 41  1  0  0  0  0
  6  9  1  0  0  0  0
  6  5  2  0  0  0  0
  7  6  1  0  0  0  0
  8  7  2  0  0  0  0
  8  3  1  0  0  0  0
  9 10  1  0  0  0  0
 10 45  1  0  0  0  0
 10 11  1  0  0  0  0
 10 44  1  0  0  0  0
 11 46  1  0  0  0  0
 12 11  1  0  0  0  0
 12 48  1  0  0  0  0
 12 13  1  0  0  0  0
 13 14  2  0  0  0  0
 15 13  1  0  0  0  0
 15 50  1  0  0  0  0
 16 51  1  6  0  0  0
 16 20  1  0  0  0  0
 16 15  1  0  0  0  0
 17 16  1  0  0  0  0
 17 18  2  0  0  0  0
 19 17  1  0  0  0  0
 20 53  1  0  0  0  0
 20 54  1  0  0  0  0
 21 23  1  0  0  0  0
 21 20  1  0  0  0  0
 22 21  2  0  0  0  0
 23 55  1  0  0  0  0
 24 57  1  6  0  0  0
 24  1  1  0  0  0  0
 24 26  1  0  0  0  0
 25 24  1  0  0  0  0
 26 59  1  0  0  0  0
 26 60  1  0  0  0  0
 27 26  1  0  0  0  0
 27 28  1  0  0  0  0
 28 31  1  0  0  0  0
 28 29  2  0  0  0  0
 30 28  2  0  0  0  0
 31 32  2  0  0  0  0
 32 62  1  0  0  0  0
 32 33  1  0  0  0  0
 33 63  1  0  0  0  0
 34 64  1  0  0  0  0
 34 33  2  0  0  0  0
 35 34  1  0  0  0  0
 36 35  2  0  0  0  0
 36 31  1  0  0  0  0
 38  2  1  0  0  0  0
 39  2  1  0  0  0  0
 42  7  1  0  0  0  0
 43  8  1  0  0  0  0
 47 11  1  0  0  0  0
 49 12  1  0  0  0  0
 52 19  1  0  0  0  0
 56 23  1  0  0  0  0
 58 25  1  0  0  0  0
 61 27  1  0  0  0  0
 65 35  1  0  0  0  0
 66 36  1  0  0  0  0
M  END
