46.4798
 OpenBabel10231816213D

 25 25  0  0  1  0  0  0  0  0999 V2000
   -1.2630   -3.7245   -1.2831 O   0  0  0  0  0  0  0  0  0  0  0  0
   -0.7104   -2.9110   -0.3394 C   0  0  0  0  0  0  0  0  0  0  0  0
    0.1215   -3.3226    0.4641 O   0  0  0  0  0  0  0  0  0  0  0  0
   -1.2382   -1.5430   -0.3643 C   0  0  0  0  0  0  0  0  0  0  0  0
   -2.2804   -1.2475   -1.1622 N   0  0  0  0  0  0  0  0  0  0  0  0
   -2.5453    0.0922   -0.9549 O   0  0  0  0  0  0  0  0  0  0  0  0
   -1.6673    0.6005   -0.0542 C   0  0  0  0  0  0  0  0  0  0  0  0
   -0.7925   -0.3876    0.3457 C   0  0  0  0  0  0  0  0  0  0  0  0
    0.3835   -0.2666    1.2611 C   0  0  0  0  0  0  0  0  0  0  0  0
    1.5858    0.4947    0.6764 C   0  0  2  0  0  0  0  0  0  0  0  0
    1.3425    1.9587    0.6406 N   0  0  0  0  0  0  0  0  0  0  0  0
    1.9971   -0.0091   -0.7169 C   0  0  0  0  0  0  0  0  0  0  0  0
    1.6864   -1.0554   -1.2615 O   0  0  0  0  0  0  0  0  0  0  0  0
    2.8588    0.8359   -1.3359 O   0  0  0  0  0  0  0  0  0  0  0  0
   -1.8056    2.0389    0.2574 C   0  0  0  0  0  0  0  0  0  0  0  0
   -1.9012   -3.1923   -1.8047 H   0  0  0  0  0  0  0  0  0  0  0  0
    0.7238   -1.2619    1.5654 H   0  0  0  0  0  0  0  0  0  0  0  0
    0.0574    0.2168    2.1945 H   0  0  0  0  0  0  0  0  0  0  0  0
    2.4514    0.3242    1.3306 H   0  0  0  0  0  0  0  0  0  0  0  0
    2.1202    2.3894    0.1310 H   0  0  0  0  0  0  0  0  0  0  0  0
    1.3730    2.3301    1.5876 H   0  0  0  0  0  0  0  0  0  0  0  0
    3.0254    0.3911   -2.1938 H   0  0  0  0  0  0  0  0  0  0  0  0
   -1.5244    2.2382    1.2954 H   0  0  0  0  0  0  0  0  0  0  0  0
   -2.8356    2.3784    0.1192 H   0  0  0  0  0  0  0  0  0  0  0  0
   -1.1628    2.6326   -0.3980 H   0  0  0  0  0  0  0  0  0  0  0  0
  1  2  1  0  0  0  0
  2  3  2  0  0  0  0
  4  2  1  0  0  0  0
  4  8  1  0  0  0  0
  5  6  1  0  0  0  0
  5  4  2  0  0  0  0
  6  7  1  0  0  0  0
  7 15  1  0  0  0  0
  7  8  2  0  0  0  0
  8  9  1  0  0  0  0
  9 17  1  0  0  0  0
  9 18  1  0  0  0  0
 10  9  1  0  0  0  0
 10 19  1  1  0  0  0
 11 10  1  0  0  0  0
 11 21  1  0  0  0  0
 12 10  1  0  0  0  0
 13 12  2  0  0  0  0
 14 12  1  0  0  0  0
 15 23  1  0  0  0  0
 16  1  1  0  0  0  0
 20 11  1  0  0  0  0
 22 14  1  0  0  0  0
 24 15  1  0  0  0  0
 25 15  1  0  0  0  0
M  END
