74.3049
 OpenBabel10231816213D

 40 42  0  0  0  0  0  0  0  0999 V2000
    4.6570    2.7160   -0.3651 O   0  0  0  0  0  0  0  0  0  0  0  0
    4.8214    1.6893    0.2972 C   0  0  0  0  0  0  0  0  0  0  0  0
    6.1956    1.1859    0.6344 C   0  0  0  0  0  0  0  0  0  0  0  0
    3.6345    0.9255    0.7940 C   0  0  0  0  0  0  0  0  0  0  0  0
    2.3642    1.3998    0.4605 C   0  0  0  0  0  0  0  0  0  0  0  0
    1.2309    0.7109    0.8805 C   0  0  0  0  0  0  0  0  0  0  0  0
    1.3518   -0.4509    1.6473 C   0  0  0  0  0  0  0  0  0  0  0  0
    2.6130   -0.9057    2.0212 C   0  0  0  0  0  0  0  0  0  0  0  0
    3.7550   -0.2320    1.5728 C   0  0  0  0  0  0  0  0  0  0  0  0
    0.2266   -1.1891    2.0509 N   0  0  0  0  0  0  0  0  0  0  0  0
   -0.8806   -1.4367    1.2657 C   0  0  0  0  0  0  0  0  0  0  0  0
   -1.9870   -1.5221    1.8018 O   0  0  0  0  0  0  0  0  0  0  0  0
   -0.6695   -1.6234   -0.1632 C   0  0  0  0  0  0  0  0  0  0  0  0
    0.4198   -2.2451   -0.8243 C   0  0  0  0  0  0  0  0  0  0  0  0
    0.2813   -2.2676   -2.1494 N   0  0  0  0  0  0  0  0  0  0  0  0
   -0.8902   -1.6448   -2.3471 N   0  0  0  0  0  0  0  0  0  0  0  0
   -1.5104   -1.2221   -1.1972 C   0  0  0  0  0  0  0  0  0  0  0  0
   -2.7650   -0.4632   -1.2087 C   0  0  0  0  0  0  0  0  0  0  0  0
   -3.7915   -0.8156   -2.0980 C   0  0  0  0  0  0  0  0  0  0  0  0
   -4.9998   -0.1127   -2.0997 C   0  0  0  0  0  0  0  0  0  0  0  0
   -6.2240   -0.5816   -3.2253 Cl  0  0  0  0  0  0  0  0  0  0  0  0
   -5.2080    0.9399   -1.2094 C   0  0  0  0  0  0  0  0  0  0  0  0
   -6.3947    1.6186   -1.2072 O   0  0  0  0  0  0  0  0  0  0  0  0
   -4.1997    1.3141   -0.3251 C   0  0  0  0  0  0  0  0  0  0  0  0
   -2.9928    0.6197   -0.3459 C   0  0  0  0  0  0  0  0  0  0  0  0
   -2.0210    1.0773    0.5001 O   0  0  0  0  0  0  0  0  0  0  0  0
    6.3474    0.1939    0.2117 H   0  0  0  0  0  0  0  0  0  0  0  0
    6.9393    1.8628    0.1996 H   0  0  0  0  0  0  0  0  0  0  0  0
    6.3361    1.1812    1.7187 H   0  0  0  0  0  0  0  0  0  0  0  0
    2.2444    2.3040   -0.1336 H   0  0  0  0  0  0  0  0  0  0  0  0
    0.2638    1.1134    0.6088 H   0  0  0  0  0  0  0  0  0  0  0  0
    2.7193   -1.8202    2.5986 H   0  0  0  0  0  0  0  0  0  0  0  0
    4.7265   -0.6411    1.8353 H   0  0  0  0  0  0  0  0  0  0  0  0
    0.0159   -1.1623    3.0423 H   0  0  0  0  0  0  0  0  0  0  0  0
    1.3094   -2.6866   -0.3921 H   0  0  0  0  0  0  0  0  0  0  0  0
   -1.2075   -1.5220   -3.3015 H   0  0  0  0  0  0  0  0  0  0  0  0
   -3.6675   -1.6492   -2.7866 H   0  0  0  0  0  0  0  0  0  0  0  0
   -6.3750    2.3065   -0.5288 H   0  0  0  0  0  0  0  0  0  0  0  0
   -4.3247    2.1414    0.3640 H   0  0  0  0  0  0  0  0  0  0  0  0
   -2.3446    0.8940    1.4027 H   0  0  0  0  0  0  0  0  0  0  0  0
  1  2  2  0  0  0  0
  2  3  1  0  0  0  0
  2  4  1  0  0  0  0
  3 29  1  0  0  0  0
  4  9  1  0  0  0  0
  5  4  2  0  0  0  0
  5  6  1  0  0  0  0
  6  7  2  0  0  0  0
  7  8  1  0  0  0  0
  7 10  1  0  0  0  0
  8 32  1  0  0  0  0
  9 33  1  0  0  0  0
  9  8  2  0  0  0  0
 10 34  1  0  0  0  0
 11 12  2  0  0  0  0
 11 10  1  0  0  0  0
 13 11  1  0  0  0  0
 14 35  1  0  0  0  0
 14 13  1  0  0  0  0
 15 14  2  0  0  0  0
 16 15  1  0  0  0  0
 16 17  1  0  0  0  0
 17 13  2  0  0  0  0
 18 17  1  0  0  0  0
 18 25  2  0  0  0  0
 19 18  1  0  0  0  0
 20 19  2  0  0  0  0
 20 22  1  0  0  0  0
 21 20  1  0  0  0  0
 22 23  1  0  0  0  0
 22 24  2  0  0  0  0
 23 38  1  0  0  0  0
 24 39  1  0  0  0  0
 25 24  1  0  0  0  0
 25 26  1  0  0  0  0
 26 40  1  0  0  0  0
 27  3  1  0  0  0  0
 28  3  1  0  0  0  0
 30  5  1  0  0  0  0
 31  6  1  0  0  0  0
 36 16  1  0  0  0  0
 37 19  1  0  0  0  0
M  END
