53.8141
 OpenBabel10231816213D

 36 36  0  0  1  0  0  0  0  0999 V2000
    2.6597    2.1843   -0.1024 C   0  0  0  0  0  0  0  0  0  0  0  0
    3.1261    1.6212   -1.4115 C   0  0  0  0  0  0  0  0  0  0  0  0
    3.0265    0.7331   -0.2034 C   0  0  0  0  0  0  0  0  0  0  0  0
    1.9709   -0.2707   -0.1787 N   0  0  0  0  0  0  0  0  0  0  0  0
    1.5015   -0.5870    1.1770 C   0  0  0  0  0  0  0  0  0  0  0  0
    0.3738   -1.6552    1.1620 C   0  0  0  0  0  0  0  0  0  0  0  0
   -0.8756   -1.2177    0.3074 C   0  0  1  0  0  0  0  0  0  0  0  0
   -1.8766   -2.3166    0.2355 N   0  0  0  0  0  0  0  0  0  0  0  0
   -1.5540    0.0515    0.8688 C   0  0  0  0  0  0  0  0  0  0  0  0
   -2.8443    0.4903    0.1592 C   0  0  0  0  0  0  0  0  0  0  0  0
   -2.7419    0.6658   -1.3576 C   0  0  0  0  0  0  0  0  0  0  0  0
   -1.7109    1.6974   -1.7832 C   0  0  0  0  0  0  0  0  0  0  0  0
    0.9159   -2.8727    0.6523 O   0  0  0  0  0  0  0  0  0  0  0  0
   -0.0350   -1.9824    2.4839 O   0  0  0  0  0  0  0  0  0  0  0  0
    3.3335    2.8396    0.4393 H   0  0  0  0  0  0  0  0  0  0  0  0
    1.6130    2.4491   -0.0096 H   0  0  0  0  0  0  0  0  0  0  0  0
    2.3918    1.5050   -2.1983 H   0  0  0  0  0  0  0  0  0  0  0  0
    4.1153    1.8933   -1.7594 H   0  0  0  0  0  0  0  0  0  0  0  0
    3.9695    0.4292    0.2475 H   0  0  0  0  0  0  0  0  0  0  0  0
    2.2687   -1.1440   -0.6235 H   0  0  0  0  0  0  0  0  0  0  0  0
    2.3450   -0.9737    1.7643 H   0  0  0  0  0  0  0  0  0  0  0  0
    1.1557    0.3156    1.6937 H   0  0  0  0  0  0  0  0  0  0  0  0
   -0.5519   -1.0340   -0.7211 H   0  0  0  0  0  0  0  0  0  0  0  0
   -2.0442   -2.6420    1.1898 H   0  0  0  0  0  0  0  0  0  0  0  0
   -1.4767   -3.0931   -0.2833 H   0  0  0  0  0  0  0  0  0  0  0  0
   -1.7913   -0.0920    1.9311 H   0  0  0  0  0  0  0  0  0  0  0  0
   -0.8473    0.8885    0.8295 H   0  0  0  0  0  0  0  0  0  0  0  0
   -3.6400   -0.2334    0.3738 H   0  0  0  0  0  0  0  0  0  0  0  0
   -3.1755    1.4369    0.6036 H   0  0  0  0  0  0  0  0  0  0  0  0
   -2.5199   -0.2939   -1.8390 H   0  0  0  0  0  0  0  0  0  0  0  0
   -3.7235    0.9766   -1.7338 H   0  0  0  0  0  0  0  0  0  0  0  0
   -1.9102    2.6668   -1.3156 H   0  0  0  0  0  0  0  0  0  0  0  0
   -1.7431    1.8321   -2.8694 H   0  0  0  0  0  0  0  0  0  0  0  0
   -0.6967    1.3867   -1.5186 H   0  0  0  0  0  0  0  0  0  0  0  0
    0.2066   -3.5181    0.8059 H   0  0  0  0  0  0  0  0  0  0  0  0
    0.7852   -2.1363    2.9838 H   0  0  0  0  0  0  0  0  0  0  0  0
  1 16  1  0  0  0  0
  1 15  1  0  0  0  0
  2  3  1  0  0  0  0
  2  1  1  0  0  0  0
  3  4  1  0  0  0  0
  3  1  1  0  0  0  0
  3 19  1  0  0  0  0
  4  5  1  0  0  0  0
  5 22  1  0  0  0  0
  5 21  1  0  0  0  0
  6  5  1  0  0  0  0
  6 14  1  0  0  0  0
  7 23  1  6  0  0  0
  7  9  1  0  0  0  0
  7  6  1  0  0  0  0
  8  7  1  0  0  0  0
  8 24  1  0  0  0  0
  9 26  1  0  0  0  0
 10 28  1  0  0  0  0
 10 29  1  0  0  0  0
 10  9  1  0  0  0  0
 11 10  1  0  0  0  0
 12 34  1  0  0  0  0
 12 11  1  0  0  0  0
 12 32  1  0  0  0  0
 13 35  1  0  0  0  0
 13  6  1  0  0  0  0
 14 36  1  0  0  0  0
 17  2  1  0  0  0  0
 18  2  1  0  0  0  0
 20  4  1  0  0  0  0
 25  8  1  0  0  0  0
 27  9  1  0  0  0  0
 30 11  1  0  0  0  0
 31 11  1  0  0  0  0
 33 12  1  0  0  0  0
M  END
