77.8523
 OpenBabel10231816213D

 50 52  0  0  1  0  0  0  0  0999 V2000
    6.6667    1.5758   -0.1013 O   0  0  0  0  0  0  0  0  0  0  0  0
    5.4024    1.9474   -0.3992 C   0  0  0  0  0  0  0  0  0  0  0  0
    5.1715    2.8110   -1.2298 O   0  0  0  0  0  0  0  0  0  0  0  0
    4.3361    1.2298    0.4259 C   0  0  1  0  0  0  0  0  0  0  0  0
    2.9237    1.5742   -0.0931 C   0  0  0  0  0  0  0  0  0  0  0  0
    2.5042    0.5897   -1.1900 C   0  0  0  0  0  0  0  0  0  0  0  0
    2.2996   -0.8496   -0.6246 C   0  0  2  0  0  0  0  0  0  0  0  0
    3.2513   -1.0653    0.5952 C   0  0  0  0  0  0  0  0  0  0  0  0
    4.5639   -0.2942    0.4366 C   0  0  0  0  0  0  0  0  0  0  0  0
    2.6928   -1.7975   -1.7070 C   0  0  0  0  0  0  0  0  0  0  0  0
    3.0296   -2.5502   -2.5277 N   0  0  0  0  0  0  0  0  0  0  0  0
    0.8637   -1.1569   -0.1615 C   0  0  0  0  0  0  0  0  0  0  0  0
    0.5086   -2.4761    0.1880 C   0  0  0  0  0  0  0  0  0  0  0  0
   -0.7787   -2.7949    0.6354 C   0  0  0  0  0  0  0  0  0  0  0  0
   -1.7504   -1.8023    0.7519 C   0  0  0  0  0  0  0  0  0  0  0  0
   -3.0270   -1.9951    1.2059 O   0  0  0  0  0  0  0  0  0  0  0  0
   -3.4009   -3.3138    1.5691 C   0  0  0  0  0  0  0  0  0  0  0  0
   -1.4125   -0.4905    0.4015 C   0  0  0  0  0  0  0  0  0  0  0  0
   -0.1234   -0.1691   -0.0301 C   0  0  0  0  0  0  0  0  0  0  0  0
   -2.2772    0.5630    0.5605 O   0  0  0  0  0  0  0  0  0  0  0  0
   -3.3849    0.5193   -0.3527 C   0  0  0  0  0  0  0  0  0  0  0  0
   -4.6725    0.8049    0.4384 C   0  0  0  0  0  0  0  0  0  0  0  0
   -5.1903    2.1524   -0.0590 C   0  0  0  0  0  0  0  0  0  0  0  0
   -3.9674    2.8373   -0.6416 C   0  0  0  0  0  0  0  0  0  0  0  0
   -3.2356    1.6920   -1.3260 C   0  0  0  0  0  0  0  0  0  0  0  0
    6.7465    0.8896    0.5846 H   0  0  0  0  0  0  0  0  0  0  0  0
    4.4221    1.6254    1.4471 H   0  0  0  0  0  0  0  0  0  0  0  0
    2.8699    2.5992   -0.4755 H   0  0  0  0  0  0  0  0  0  0  0  0
    2.2122    1.5292    0.7415 H   0  0  0  0  0  0  0  0  0  0  0  0
    3.2989    0.5876   -1.9507 H   0  0  0  0  0  0  0  0  0  0  0  0
    1.6181    0.9495   -1.7245 H   0  0  0  0  0  0  0  0  0  0  0  0
    2.7716   -0.7271    1.5252 H   0  0  0  0  0  0  0  0  0  0  0  0
    3.4732   -2.1309    0.7437 H   0  0  0  0  0  0  0  0  0  0  0  0
    5.2426   -0.5582    1.2562 H   0  0  0  0  0  0  0  0  0  0  0  0
    5.0624   -0.6160   -0.4872 H   0  0  0  0  0  0  0  0  0  0  0  0
    1.2378   -3.2827    0.1198 H   0  0  0  0  0  0  0  0  0  0  0  0
   -0.9802   -3.8287    0.8970 H   0  0  0  0  0  0  0  0  0  0  0  0
   -2.8041   -3.6715    2.4135 H   0  0  0  0  0  0  0  0  0  0  0  0
   -3.3304   -3.9920    0.7133 H   0  0  0  0  0  0  0  0  0  0  0  0
   -4.4476   -3.2802    1.8856 H   0  0  0  0  0  0  0  0  0  0  0  0
    0.0694    0.8761   -0.2549 H   0  0  0  0  0  0  0  0  0  0  0  0
   -3.4530   -0.4294   -0.9011 H   0  0  0  0  0  0  0  0  0  0  0  0
   -4.4764    0.8466    1.5157 H   0  0  0  0  0  0  0  0  0  0  0  0
   -5.4268    0.0279    0.2703 H   0  0  0  0  0  0  0  0  0  0  0  0
   -5.6560    2.7381    0.7398 H   0  0  0  0  0  0  0  0  0  0  0  0
   -5.9429    1.9987   -0.8424 H   0  0  0  0  0  0  0  0  0  0  0  0
   -4.2289    3.6387   -1.3379 H   0  0  0  0  0  0  0  0  0  0  0  0
   -3.3515    3.2626    0.1594 H   0  0  0  0  0  0  0  0  0  0  0  0
   -3.7288    1.4569   -2.2764 H   0  0  0  0  0  0  0  0  0  0  0  0
   -2.1914    1.9492   -1.5273 H   0  0  0  0  0  0  0  0  0  0  0  0
  1 26  1  0  0  0  0
  2  1  1  0  0  0  0
  2  4  1  0  0  0  0
  3  2  2  0  0  0  0
  4  9  1  0  0  0  0
  4 27  1  1  0  0  0
  5  4  1  0  0  0  0
  5 29  1  0  0  0  0
  6  7  1  0  0  0  0
  6  5  1  0  0  0  0
  7 10  1  6  0  0  0
  7 12  1  0  0  0  0
  7  8  1  0  0  0  0
  8 33  1  0  0  0  0
  8 32  1  0  0  0  0
  9  8  1  0  0  0  0
  9 34  1  0  0  0  0
 11 10  3  0  0  0  0
 12 19  2  0  0  0  0
 12 13  1  0  0  0  0
 13 14  2  0  0  0  0
 14 15  1  0  0  0  0
 14 37  1  0  0  0  0
 15 16  1  0  0  0  0
 16 17  1  0  0  0  0
 17 40  1  0  0  0  0
 17 38  1  0  0  0  0
 18 20  1  0  0  0  0
 18 15  2  0  0  0  0
 19 18  1  0  0  0  0
 21 22  1  0  0  0  0
 21 20  1  0  0  0  0
 22 43  1  0  0  0  0
 23 22  1  0  0  0  0
 23 45  1  0  0  0  0
 24 23  1  0  0  0  0
 24 48  1  0  0  0  0
 25 24  1  0  0  0  0
 25 21  1  0  0  0  0
 28  5  1  0  0  0  0
 30  6  1  0  0  0  0
 31  6  1  0  0  0  0
 35  9  1  0  0  0  0
 36 13  1  0  0  0  0
 39 17  1  0  0  0  0
 41 19  1  0  0  0  0
 42 21  1  0  0  0  0
 44 22  1  0  0  0  0
 46 23  1  0  0  0  0
 47 24  1  0  0  0  0
 49 25  1  0  0  0  0
 50 25  1  0  0  0  0
M  END
