69.0836
 OpenBabel10231816213D

 50 52  0  0  1  0  0  0  0  0999 V2000
    6.8534    1.2810   -0.9963 O   0  0  0  0  0  0  0  0  0  0  0  0
    6.1218    0.3392   -0.3582 C   0  0  0  0  0  0  0  0  0  0  0  0
    6.5719   -0.2646    0.5915 O   0  0  0  0  0  0  0  0  0  0  0  0
    4.7464    0.1741   -0.9855 C   0  0  1  0  0  0  0  0  0  0  0  0
    4.0495   -1.0877   -0.4388 C   0  0  0  0  0  0  0  0  0  0  0  0
    3.2059   -0.7429    0.7920 C   0  0  0  0  0  0  0  0  0  0  0  0
    2.0229    0.2020    0.4477 C   0  0  2  0  0  0  0  0  0  0  0  0
    2.4024    1.0962   -0.7681 C   0  0  0  0  0  0  0  0  0  0  0  0
    3.9019    1.4300   -0.7433 C   0  0  0  0  0  0  0  0  0  0  0  0
    1.8044    1.0784    1.6331 C   0  0  0  0  0  0  0  0  0  0  0  0
    1.6498    1.7810    2.5436 N   0  0  0  0  0  0  0  0  0  0  0  0
    0.7032   -0.5283    0.1208 C   0  0  0  0  0  0  0  0  0  0  0  0
    0.6315   -1.9077   -0.1442 C   0  0  0  0  0  0  0  0  0  0  0  0
   -0.5928   -2.5201   -0.4434 C   0  0  0  0  0  0  0  0  0  0  0  0
   -1.7659   -1.7657   -0.4925 C   0  0  0  0  0  0  0  0  0  0  0  0
   -3.0072   -2.2428   -0.7946 O   0  0  0  0  0  0  0  0  0  0  0  0
   -3.1269   -3.6273   -1.0512 C   0  0  0  0  0  0  0  0  0  0  0  0
   -1.7030   -0.3993   -0.2209 C   0  0  0  0  0  0  0  0  0  0  0  0
   -0.4878    0.2128    0.0688 C   0  0  0  0  0  0  0  0  0  0  0  0
   -2.7971    0.4115   -0.3580 O   0  0  0  0  0  0  0  0  0  0  0  0
   -3.7270    0.2967    0.7331 C   0  0  0  0  0  0  0  0  0  0  0  0
   -5.1220    0.5755    0.1764 C   0  0  0  0  0  0  0  0  0  0  0  0
   -5.1037    2.0834   -0.0899 C   0  0  0  0  0  0  0  0  0  0  0  0
   -4.1329    2.6725    0.9448 C   0  0  0  0  0  0  0  0  0  0  0  0
   -3.5248    1.4745    1.6839 C   0  0  0  0  0  0  0  0  0  0  0  0
    7.6975    1.3179   -0.5046 H   0  0  0  0  0  0  0  0  0  0  0  0
    4.9127    0.0297   -2.0642 H   0  0  0  0  0  0  0  0  0  0  0  0
    3.3987   -1.5027   -1.2225 H   0  0  0  0  0  0  0  0  0  0  0  0
    4.7721   -1.8692   -0.1937 H   0  0  0  0  0  0  0  0  0  0  0  0
    2.8630   -1.6446    1.3119 H   0  0  0  0  0  0  0  0  0  0  0  0
    3.8717   -0.2429    1.5156 H   0  0  0  0  0  0  0  0  0  0  0  0
    1.8216    2.0164   -0.7768 H   0  0  0  0  0  0  0  0  0  0  0  0
    2.1864    0.5731   -1.7116 H   0  0  0  0  0  0  0  0  0  0  0  0
    4.1574    1.8797    0.2268 H   0  0  0  0  0  0  0  0  0  0  0  0
    4.1412    2.1856   -1.4992 H   0  0  0  0  0  0  0  0  0  0  0  0
    1.5157   -2.5415   -0.1272 H   0  0  0  0  0  0  0  0  0  0  0  0
   -0.5968   -3.5881   -0.6398 H   0  0  0  0  0  0  0  0  0  0  0  0
   -2.8323   -4.2210   -0.1799 H   0  0  0  0  0  0  0  0  0  0  0  0
   -2.5504   -3.9150   -1.9347 H   0  0  0  0  0  0  0  0  0  0  0  0
   -4.1839   -3.8144   -1.2522 H   0  0  0  0  0  0  0  0  0  0  0  0
   -0.4817    1.2829    0.2634 H   0  0  0  0  0  0  0  0  0  0  0  0
   -3.6839   -0.6692    1.2525 H   0  0  0  0  0  0  0  0  0  0  0  0
   -5.8971    0.3365    0.9155 H   0  0  0  0  0  0  0  0  0  0  0  0
   -5.3262    0.0005   -0.7326 H   0  0  0  0  0  0  0  0  0  0  0  0
   -4.7326    2.2839   -1.1032 H   0  0  0  0  0  0  0  0  0  0  0  0
   -6.1028    2.5269   -0.0266 H   0  0  0  0  0  0  0  0  0  0  0  0
   -3.3515    3.2560    0.4427 H   0  0  0  0  0  0  0  0  0  0  0  0
   -4.6368    3.3545    1.6384 H   0  0  0  0  0  0  0  0  0  0  0  0
   -4.0651    1.3048    2.6233 H   0  0  0  0  0  0  0  0  0  0  0  0
   -2.4708    1.6374    1.9277 H   0  0  0  0  0  0  0  0  0  0  0  0
  1 26  1  0  0  0  0
  1  2  1  0  0  0  0
  2  3  2  0  0  0  0
  4 27  1  6  0  0  0
  4  9  1  0  0  0  0
  4  5  1  0  0  0  0
  4  2  1  0  0  0  0
  5 29  1  0  0  0  0
  5  6  1  0  0  0  0
  6 30  1  0  0  0  0
  6 31  1  0  0  0  0
  7 12  1  6  0  0  0
  7  6  1  0  0  0  0
  7 10  1  0  0  0  0
  8  9  1  0  0  0  0
  8  7  1  0  0  0  0
  9 34  1  0  0  0  0
 10 11  3  0  0  0  0
 13 36  1  0  0  0  0
 13 12  2  0  0  0  0
 14 13  1  0  0  0  0
 15 14  2  0  0  0  0
 15 18  1  0  0  0  0
 16 15  1  0  0  0  0
 17 16  1  0  0  0  0
 17 38  1  0  0  0  0
 18 19  2  0  0  0  0
 19 12  1  0  0  0  0
 19 41  1  0  0  0  0
 20 18  1  0  0  0  0
 20 21  1  0  0  0  0
 21 42  1  0  0  0  0
 21 25  1  0  0  0  0
 22 21  1  0  0  0  0
 22 43  1  0  0  0  0
 23 46  1  0  0  0  0
 23 22  1  0  0  0  0
 23 24  1  0  0  0  0
 24 48  1  0  0  0  0
 24 25  1  0  0  0  0
 25 50  1  0  0  0  0
 25 49  1  0  0  0  0
 28  5  1  0  0  0  0
 32  8  1  0  0  0  0
 33  8  1  0  0  0  0
 35  9  1  0  0  0  0
 37 14  1  0  0  0  0
 39 17  1  0  0  0  0
 40 17  1  0  0  0  0
 44 22  1  0  0  0  0
 45 23  1  0  0  0  0
 47 24  1  0  0  0  0
M  END
