57.7948
 OpenBabel10231816213D

 36 36  0  0  1  0  0  0  0  0999 V2000
    4.8413    1.2516   -0.1970 C   0  0  0  0  0  0  0  0  0  0  0  0
    4.8064   -0.2480   -0.0777 C   0  0  0  0  0  0  0  0  0  0  0  0
    3.8867    0.5905    0.7641 C   0  0  0  0  0  0  0  0  0  0  0  0
    2.4535    0.6594    0.4963 N   0  0  0  0  0  0  0  0  0  0  0  0
    1.8263   -0.6714    0.3753 C   0  0  0  0  0  0  0  0  0  0  0  0
    0.2933   -0.5868    0.5957 C   0  0  0  0  0  0  0  0  0  0  0  0
   -0.4549    0.0661   -0.6177 C   0  0  1  0  0  0  0  0  0  0  0  0
   -0.5233   -0.8176   -1.7993 N   0  0  0  0  0  0  0  0  0  0  0  0
   -1.8752    0.5663   -0.2694 C   0  0  0  0  0  0  0  0  0  0  0  0
   -2.8806   -0.5203    0.1242 C   0  0  0  0  0  0  0  0  0  0  0  0
   -4.2683    0.0398    0.4438 C   0  0  0  0  0  0  0  0  0  0  0  0
   -4.9833    0.6063   -0.7723 C   0  0  0  0  0  0  0  0  0  0  0  0
   -0.1780   -1.9089    0.8195 O   0  0  0  0  0  0  0  0  0  0  0  0
    0.0511    0.1384    1.7956 O   0  0  0  0  0  0  0  0  0  0  0  0
    5.6938    1.7722    0.2187 H   0  0  0  0  0  0  0  0  0  0  0  0
    4.4510    1.6894   -1.1066 H   0  0  0  0  0  0  0  0  0  0  0  0
    5.6318   -0.7409    0.4194 H   0  0  0  0  0  0  0  0  0  0  0  0
    4.4030   -0.8081   -0.9156 H   0  0  0  0  0  0  0  0  0  0  0  0
    4.1418    0.6563    1.8200 H   0  0  0  0  0  0  0  0  0  0  0  0
    2.2634    1.2010   -0.3486 H   0  0  0  0  0  0  0  0  0  0  0  0
    2.0575   -1.1327   -0.5888 H   0  0  0  0  0  0  0  0  0  0  0  0
    2.2431   -1.3301    1.1500 H   0  0  0  0  0  0  0  0  0  0  0  0
    0.0953    0.9666   -0.9171 H   0  0  0  0  0  0  0  0  0  0  0  0
   -0.7487   -1.7557   -1.4475 H   0  0  0  0  0  0  0  0  0  0  0  0
    0.3999   -0.9143   -2.2179 H   0  0  0  0  0  0  0  0  0  0  0  0
   -1.8068    1.2997    0.5432 H   0  0  0  0  0  0  0  0  0  0  0  0
   -2.2548    1.1218   -1.1341 H   0  0  0  0  0  0  0  0  0  0  0  0
   -2.5251   -1.0425    1.0189 H   0  0  0  0  0  0  0  0  0  0  0  0
   -2.9680   -1.2683   -0.6716 H   0  0  0  0  0  0  0  0  0  0  0  0
   -4.8800   -0.7692    0.8603 H   0  0  0  0  0  0  0  0  0  0  0  0
   -4.1915    0.8115    1.2190 H   0  0  0  0  0  0  0  0  0  0  0  0
   -5.9961    0.9188   -0.4997 H   0  0  0  0  0  0  0  0  0  0  0  0
   -4.4664    1.4823   -1.1749 H   0  0  0  0  0  0  0  0  0  0  0  0
   -5.0614   -0.1440   -1.5653 H   0  0  0  0  0  0  0  0  0  0  0  0
   -0.2937   -1.9271    1.7868 H   0  0  0  0  0  0  0  0  0  0  0  0
    0.8168    0.7478    1.8701 H   0  0  0  0  0  0  0  0  0  0  0  0
  1  2  1  0  0  0  0
  1 15  1  0  0  0  0
  1  3  1  0  0  0  0
  2 17  1  0  0  0  0
  2  3  1  0  0  0  0
  3 19  1  0  0  0  0
  4  3  1  0  0  0  0
  5  4  1  0  0  0  0
  5  6  1  0  0  0  0
  5 22  1  0  0  0  0
  6 13  1  0  0  0  0
  6 14  1  0  0  0  0
  7 23  1  6  0  0  0
  7  9  1  0  0  0  0
  7  6  1  0  0  0  0
  8 24  1  0  0  0  0
  8  7  1  0  0  0  0
  9 10  1  0  0  0  0
  9 26  1  0  0  0  0
 10 11  1  0  0  0  0
 10 28  1  0  0  0  0
 11 30  1  0  0  0  0
 11 31  1  0  0  0  0
 12 32  1  0  0  0  0
 12 11  1  0  0  0  0
 13 35  1  0  0  0  0
 14 36  1  0  0  0  0
 16  1  1  0  0  0  0
 18  2  1  0  0  0  0
 20  4  1  0  0  0  0
 21  5  1  0  0  0  0
 25  8  1  0  0  0  0
 27  9  1  0  0  0  0
 29 10  1  0  0  0  0
 33 12  1  0  0  0  0
 34 12  1  0  0  0  0
M  END
