46.4557
 OpenBabel10231816213D

 25 25  0  0  1  0  0  0  0  0999 V2000
   -1.8894   -3.7899   -0.4548 O   0  0  0  0  0  0  0  0  0  0  0  0
   -1.0631   -2.7390   -0.6657 C   0  0  0  0  0  0  0  0  0  0  0  0
    0.0345   -2.9245   -1.1690 O   0  0  0  0  0  0  0  0  0  0  0  0
   -1.5875   -1.4414   -0.2485 C   0  0  0  0  0  0  0  0  0  0  0  0
   -2.8154   -1.3272    0.2936 N   0  0  0  0  0  0  0  0  0  0  0  0
   -2.9920    0.0047    0.5851 O   0  0  0  0  0  0  0  0  0  0  0  0
   -1.8958    0.7007    0.2064 C   0  0  0  0  0  0  0  0  0  0  0  0
   -0.9534   -0.1665   -0.3129 C   0  0  0  0  0  0  0  0  0  0  0  0
    0.4295    0.1761   -0.7621 C   0  0  0  0  0  0  0  0  0  0  0  0
    1.3882    0.3262    0.4282 C   0  0  2  0  0  0  0  0  0  0  0  0
    1.0400    1.5169    1.2447 N   0  0  0  0  0  0  0  0  0  0  0  0
    2.8138    0.4490   -0.0981 C   0  0  0  0  0  0  0  0  0  0  0  0
    3.4537    1.4819   -0.2191 O   0  0  0  0  0  0  0  0  0  0  0  0
    3.3375   -0.7394   -0.4565 O   0  0  0  0  0  0  0  0  0  0  0  0
   -1.9060    2.1516    0.4596 C   0  0  0  0  0  0  0  0  0  0  0  0
   -1.3709   -4.5504   -0.7674 H   0  0  0  0  0  0  0  0  0  0  0  0
    0.4072    1.1043   -1.3492 H   0  0  0  0  0  0  0  0  0  0  0  0
    0.8025   -0.5872   -1.4549 H   0  0  0  0  0  0  0  0  0  0  0  0
    1.3357   -0.5530    1.0815 H   0  0  0  0  0  0  0  0  0  0  0  0
    1.3736    2.3520    0.7568 H   0  0  0  0  0  0  0  0  0  0  0  0
    1.5468    1.4878    2.1272 H   0  0  0  0  0  0  0  0  0  0  0  0
    4.2331   -0.5371   -0.7966 H   0  0  0  0  0  0  0  0  0  0  0  0
   -1.5604    2.3708    1.4738 H   0  0  0  0  0  0  0  0  0  0  0  0
   -1.2493    2.6701   -0.2469 H   0  0  0  0  0  0  0  0  0  0  0  0
   -2.9129    2.5636    0.3447 H   0  0  0  0  0  0  0  0  0  0  0  0
  2  1  1  0  0  0  0
  2  4  1  0  0  0  0
  3  2  2  0  0  0  0
  4  5  2  0  0  0  0
  5  6  1  0  0  0  0
  7 15  1  0  0  0  0
  7  6  1  0  0  0  0
  8  4  1  0  0  0  0
  8  7  2  0  0  0  0
  9  8  1  0  0  0  0
  9 10  1  0  0  0  0
 10 19  1  1  0  0  0
 10 11  1  0  0  0  0
 11 21  1  0  0  0  0
 12 10  1  0  0  0  0
 13 12  2  0  0  0  0
 14 12  1  0  0  0  0
 15 23  1  0  0  0  0
 16  1  1  0  0  0  0
 17  9  1  0  0  0  0
 18  9  1  0  0  0  0
 20 11  1  0  0  0  0
 22 14  1  0  0  0  0
 24 15  1  0  0  0  0
 25 15  1  0  0  0  0
M  END
