40.0348
 OpenBabel10231816213D

 61 65  0  0  0  0  0  0  0  0999 V2000
    9.4170   -0.1473   -1.2140 N   0  0  0  0  0  0  0  0  0  0  0  0
    8.7484    0.9599   -1.5906 C   0  0  0  0  0  0  0  0  0  0  0  0
    7.4163    1.2042   -1.2847 C   0  0  0  0  0  0  0  0  0  0  0  0
    6.6841    0.2594   -0.5575 C   0  0  0  0  0  0  0  0  0  0  0  0
    7.3808   -0.8839   -0.1474 C   0  0  0  0  0  0  0  0  0  0  0  0
    8.7161   -1.0418   -0.4918 C   0  0  0  0  0  0  0  0  0  0  0  0
    5.3394    0.5034   -0.2233 N   0  0  0  0  0  0  0  0  0  0  0  0
    4.7271   -0.3905    0.7653 C   0  0  0  0  0  0  0  0  0  0  0  0
    3.4365    0.2193    1.2969 C   0  0  0  0  0  0  0  0  0  0  0  0
    2.4683    0.5305    0.1564 C   0  0  0  0  0  0  0  0  0  0  0  0
    3.1620    1.4685   -0.8387 C   0  0  0  0  0  0  0  0  0  0  0  0
    4.4595    0.8508   -1.3546 C   0  0  0  0  0  0  0  0  0  0  0  0
    1.2286    1.1995    0.7136 C   0  0  0  0  0  0  0  0  0  0  0  0
    1.1827    2.4201    0.8706 O   0  0  0  0  0  0  0  0  0  0  0  0
    0.1626    0.3962    1.0705 N   0  0  0  0  0  0  0  0  0  0  0  0
   -1.1054    1.0429    1.4397 C   0  0  0  0  0  0  0  0  0  0  0  0
   -2.2840    0.3279    0.7819 C   0  0  0  0  0  0  0  0  0  0  0  0
   -2.3430   -1.1178    1.1858 N   0  0  0  0  0  0  0  0  0  0  0  0
   -1.0488   -1.6470    1.7161 C   0  0  0  0  0  0  0  0  0  0  0  0
    0.1333   -1.0632    0.9467 C   0  0  0  0  0  0  0  0  0  0  0  0
   -3.0409   -2.1913    0.0621 S   0  0  0  0  0  0  0  0  0  0  0  0
   -2.1445   -2.2335   -1.0877 O   0  0  0  0  0  0  0  0  0  0  0  0
   -3.3867   -3.3899    0.7854 O   0  0  0  0  0  0  0  0  0  0  0  0
   -4.5177   -1.3621   -0.4115 C   0  0  0  0  0  0  0  0  0  0  0  0
   -5.3985   -0.8973    0.5701 C   0  0  0  0  0  0  0  0  0  0  0  0
   -6.5442   -0.1869    0.1900 C   0  0  0  0  0  0  0  0  0  0  0  0
   -6.7977    0.0530   -1.1860 C   0  0  0  0  0  0  0  0  0  0  0  0
   -5.8848   -0.4130   -2.1461 C   0  0  0  0  0  0  0  0  0  0  0  0
   -4.7443   -1.1116   -1.7595 C   0  0  0  0  0  0  0  0  0  0  0  0
   -7.9534    0.7517   -1.5607 C   0  0  0  0  0  0  0  0  0  0  0  0
   -8.8443    1.2123   -0.5900 C   0  0  0  0  0  0  0  0  0  0  0  0
   -8.5972    0.9842    0.7593 C   0  0  0  0  0  0  0  0  0  0  0  0
   -7.4488    0.2900    1.1478 C   0  0  0  0  0  0  0  0  0  0  0  0
  -10.2622    2.0678   -1.0657 Cl  0  0  0  0  0  0  0  0  0  0  0  0
    9.3285    1.6792   -2.1606 H   0  0  0  0  0  0  0  0  0  0  0  0
    6.9733    2.1453   -1.5894 H   0  0  0  0  0  0  0  0  0  0  0  0
    6.9116   -1.6727    0.4268 H   0  0  0  0  0  0  0  0  0  0  0  0
    9.2668   -1.9258   -0.1849 H   0  0  0  0  0  0  0  0  0  0  0  0
    4.5259   -1.3705    0.3143 H   0  0  0  0  0  0  0  0  0  0  0  0
    5.3988   -0.5275    1.6201 H   0  0  0  0  0  0  0  0  0  0  0  0
    2.9844   -0.4553    2.0309 H   0  0  0  0  0  0  0  0  0  0  0  0
    3.6708    1.1493    1.8316 H   0  0  0  0  0  0  0  0  0  0  0  0
    2.1944   -0.3876   -0.3772 H   0  0  0  0  0  0  0  0  0  0  0  0
    3.3797    2.4275   -0.3510 H   0  0  0  0  0  0  0  0  0  0  0  0
    2.4921    1.6884   -1.6790 H   0  0  0  0  0  0  0  0  0  0  0  0
    4.2302   -0.0520   -1.9348 H   0  0  0  0  0  0  0  0  0  0  0  0
    4.9256    1.5695   -2.0350 H   0  0  0  0  0  0  0  0  0  0  0  0
   -1.1043    2.0971    1.1499 H   0  0  0  0  0  0  0  0  0  0  0  0
   -1.2018    1.0042    2.5323 H   0  0  0  0  0  0  0  0  0  0  0  0
   -3.2167    0.8012    1.1052 H   0  0  0  0  0  0  0  0  0  0  0  0
   -2.2016    0.4291   -0.3064 H   0  0  0  0  0  0  0  0  0  0  0  0
   -0.9769   -1.3752    2.7742 H   0  0  0  0  0  0  0  0  0  0  0  0
   -1.0367   -2.7383    1.6658 H   0  0  0  0  0  0  0  0  0  0  0  0
    1.0701   -1.4841    1.3225 H   0  0  0  0  0  0  0  0  0  0  0  0
    0.0656   -1.3101   -0.1208 H   0  0  0  0  0  0  0  0  0  0  0  0
   -5.1761   -1.0715    1.6222 H   0  0  0  0  0  0  0  0  0  0  0  0
   -6.0557   -0.2363   -3.2046 H   0  0  0  0  0  0  0  0  0  0  0  0
   -4.0345   -1.4509   -2.5122 H   0  0  0  0  0  0  0  0  0  0  0  0
   -8.1662    0.9417   -2.6123 H   0  0  0  0  0  0  0  0  0  0  0  0
   -9.2930    1.3440    1.5154 H   0  0  0  0  0  0  0  0  0  0  0  0
   -7.2704    0.1167    2.2089 H   0  0  0  0  0  0  0  0  0  0  0  0
  1  6  2  0  0  0  0
  2  3  2  0  0  0  0
  2  1  1  0  0  0  0
  3  4  1  0  0  0  0
  4  7  1  0  0  0  0
  4  5  2  0  0  0  0
  5 37  1  0  0  0  0
  6 38  1  0  0  0  0
  6  5  1  0  0  0  0
  7  8  1  0  0  0  0
  8  9  1  0  0  0  0
  8 40  1  0  0  0  0
  9 42  1  0  0  0  0
  9 41  1  0  0  0  0
 10 13  1  0  0  0  0
 10  9  1  0  0  0  0
 11 44  1  0  0  0  0
 11 10  1  0  0  0  0
 12 11  1  0  0  0  0
 12  7  1  0  0  0  0
 13 14  2  0  0  0  0
 13 15  1  0  0  0  0
 15 16  1  0  0  0  0
 16 49  1  0  0  0  0
 17 50  1  0  0  0  0
 17 18  1  0  0  0  0
 17 16  1  0  0  0  0
 18 19  1  0  0  0  0
 19 52  1  0  0  0  0
 20 15  1  0  0  0  0
 20 54  1  0  0  0  0
 20 19  1  0  0  0  0
 21 23  2  0  0  0  0
 21 18  1  0  0  0  0
 22 21  2  0  0  0  0
 24 21  1  0  0  0  0
 24 25  2  0  0  0  0
 25 56  1  0  0  0  0
 26 25  1  0  0  0  0
 26 33  2  0  0  0  0
 27 26  1  0  0  0  0
 28 29  2  0  0  0  0
 28 27  1  0  0  0  0
 29 24  1  0  0  0  0
 30 27  2  0  0  0  0
 30 31  1  0  0  0  0
 31 32  2  0  0  0  0
 32 33  1  0  0  0  0
 32 60  1  0  0  0  0
 33 61  1  0  0  0  0
 34 31  1  0  0  0  0
 35  2  1  0  0  0  0
 36  3  1  0  0  0  0
 39  8  1  0  0  0  0
 43 10  1  0  0  0  0
 45 11  1  0  0  0  0
 46 12  1  0  0  0  0
 47 12  1  0  0  0  0
 48 16  1  0  0  0  0
 51 17  1  0  0  0  0
 53 19  1  0  0  0  0
 55 20  1  0  0  0  0
 57 28  1  0  0  0  0
 58 29  1  0  0  0  0
 59 30  1  0  0  0  0
M  END
