59.489
 OpenBabel10231816213D

 36 36  0  0  1  0  0  0  0  0999 V2000
    4.7079    0.6494    0.7401 C   0  0  0  0  0  0  0  0  0  0  0  0
    4.6784    1.4897   -0.5045 C   0  0  0  0  0  0  0  0  0  0  0  0
    3.8826    0.2221   -0.4388 C   0  0  0  0  0  0  0  0  0  0  0  0
    2.4381    0.3165   -0.3994 N   0  0  0  0  0  0  0  0  0  0  0  0
    1.8258   -0.6407    0.5246 C   0  0  0  0  0  0  0  0  0  0  0  0
    0.3055   -0.4084    0.6328 C   0  0  0  0  0  0  0  0  0  0  0  0
   -0.4127   -0.7202   -0.7275 C   0  0  1  0  0  0  0  0  0  0  0  0
   -0.4994   -2.1629   -1.0330 N   0  0  0  0  0  0  0  0  0  0  0  0
   -1.8124   -0.0804   -0.8477 C   0  0  0  0  0  0  0  0  0  0  0  0
   -2.8350   -0.5138    0.2049 C   0  0  0  0  0  0  0  0  0  0  0  0
   -4.2739   -0.1716   -0.1889 C   0  0  0  0  0  0  0  0  0  0  0  0
   -4.5487    1.3230   -0.2886 C   0  0  0  0  0  0  0  0  0  0  0  0
   -0.1280   -1.2632    1.6916 O   0  0  0  0  0  0  0  0  0  0  0  0
    0.0166    0.9321    0.9983 O   0  0  0  0  0  0  0  0  0  0  0  0
    4.2072    1.0321    1.6219 H   0  0  0  0  0  0  0  0  0  0  0  0
    5.5973    0.0685    0.9509 H   0  0  0  0  0  0  0  0  0  0  0  0
    5.5450    1.4875   -1.1519 H   0  0  0  0  0  0  0  0  0  0  0  0
    4.1504    2.4347   -0.4678 H   0  0  0  0  0  0  0  0  0  0  0  0
    4.2490   -0.6209   -1.0184 H   0  0  0  0  0  0  0  0  0  0  0  0
    2.0887    1.2484   -0.1847 H   0  0  0  0  0  0  0  0  0  0  0  0
    2.2539   -0.5234    1.5286 H   0  0  0  0  0  0  0  0  0  0  0  0
    2.0312   -1.6738    0.2152 H   0  0  0  0  0  0  0  0  0  0  0  0
    0.1717   -0.2514   -1.5313 H   0  0  0  0  0  0  0  0  0  0  0  0
    0.4203   -2.4812   -1.3377 H   0  0  0  0  0  0  0  0  0  0  0  0
   -0.6743   -2.6571   -0.1564 H   0  0  0  0  0  0  0  0  0  0  0  0
   -1.7071    1.0134   -0.8238 H   0  0  0  0  0  0  0  0  0  0  0  0
   -2.1975   -0.3191   -1.8449 H   0  0  0  0  0  0  0  0  0  0  0  0
   -2.7712   -1.5976    0.3527 H   0  0  0  0  0  0  0  0  0  0  0  0
   -2.6151   -0.0405    1.1685 H   0  0  0  0  0  0  0  0  0  0  0  0
   -4.5096   -0.6496   -1.1463 H   0  0  0  0  0  0  0  0  0  0  0  0
   -4.9501   -0.6078    0.5560 H   0  0  0  0  0  0  0  0  0  0  0  0
   -5.6020    1.4992   -0.5305 H   0  0  0  0  0  0  0  0  0  0  0  0
   -4.3332    1.8308    0.6574 H   0  0  0  0  0  0  0  0  0  0  0  0
   -3.9490    1.7918   -1.0740 H   0  0  0  0  0  0  0  0  0  0  0  0
   -1.0208   -0.9696    1.9159 H   0  0  0  0  0  0  0  0  0  0  0  0
    0.2705    1.0135    1.9369 H   0  0  0  0  0  0  0  0  0  0  0  0
  1 16  1  0  0  0  0
  1 15  1  0  0  0  0
  2 18  1  0  0  0  0
  2  3  1  0  0  0  0
  2  1  1  0  0  0  0
  3  4  1  0  0  0  0
  3  1  1  0  0  0  0
  4 20  1  0  0  0  0
  4  5  1  0  0  0  0
  5  6  1  0  0  0  0
  5 21  1  0  0  0  0
  6 14  1  0  0  0  0
  6 13  1  0  0  0  0
  7 23  1  6  0  0  0
  7  6  1  0  0  0  0
  8  7  1  0  0  0  0
  8 25  1  0  0  0  0
  9 26  1  0  0  0  0
  9  7  1  0  0  0  0
  9 10  1  0  0  0  0
 10 28  1  0  0  0  0
 10 29  1  0  0  0  0
 11 10  1  0  0  0  0
 11 31  1  0  0  0  0
 12 11  1  0  0  0  0
 12 33  1  0  0  0  0
 13 35  1  0  0  0  0
 14 36  1  0  0  0  0
 17  2  1  0  0  0  0
 19  3  1  0  0  0  0
 22  5  1  0  0  0  0
 24  8  1  0  0  0  0
 27  9  1  0  0  0  0
 30 11  1  0  0  0  0
 32 12  1  0  0  0  0
 34 12  1  0  0  0  0
M  END
