2.68728
 OpenBabel10231816213D

 66 68  0  0  1  0  0  0  0  0999 V2000
    0.4629    1.3919    0.4316 C   0  0  2  0  0  0  0  0  0  0  0  0
    0.9754    0.8732   -0.9261 C   0  0  0  0  0  0  0  0  0  0  0  0
    0.3895   -0.4921   -1.2138 C   0  0  0  0  0  0  0  0  0  0  0  0
   -0.6261   -0.6708   -2.1574 C   0  0  0  0  0  0  0  0  0  0  0  0
   -1.2960   -1.8956   -2.2513 C   0  0  0  0  0  0  0  0  0  0  0  0
   -0.9708   -2.9410   -1.3917 C   0  0  0  0  0  0  0  0  0  0  0  0
    0.1061   -2.8039   -0.5193 C   0  0  0  0  0  0  0  0  0  0  0  0
    0.7741   -1.5819   -0.4258 C   0  0  0  0  0  0  0  0  0  0  0  0
   -1.6469   -4.1232   -1.3429 O   0  0  0  0  0  0  0  0  0  0  0  0
   -3.0775   -4.0443   -1.2678 C   0  0  0  0  0  0  0  0  0  0  0  0
   -3.6154   -3.4945    0.0608 C   0  0  0  0  0  0  0  0  0  0  0  0
   -3.4119   -1.9852    0.2476 C   0  0  0  0  0  0  0  0  0  0  0  0
   -4.1944   -1.4370    1.4168 C   0  0  0  0  0  0  0  0  0  0  0  0
   -4.9005   -2.1431    2.1530 O   0  0  0  0  0  0  0  0  0  0  0  0
   -4.0814   -0.1023    1.6838 N   0  0  0  0  0  0  0  0  0  0  0  0
   -3.2869    0.8915    0.9502 C   0  0  2  0  0  0  0  0  0  0  0  0
   -1.7820    0.6726    1.2017 C   0  0  0  0  0  0  0  0  0  0  0  0
   -1.3198   -0.1377    2.0089 O   0  0  0  0  0  0  0  0  0  0  0  0
   -0.9882    1.4797    0.4258 N   0  0  0  0  0  0  0  0  0  0  0  0
   -3.7008    2.2976    1.3868 C   0  0  0  0  0  0  0  0  0  0  0  0
   -3.4139    3.3232    0.3218 C   0  0  0  0  0  0  0  0  0  0  0  0
   -3.9072    3.2590   -0.8102 O   0  0  0  0  0  0  0  0  0  0  0  0
   -2.5289    4.3075    0.6247 N   0  0  0  0  0  0  0  0  0  0  0  0
    1.0270    2.7597    0.8564 C   0  0  2  0  0  0  0  0  0  0  0  0
    0.4244    3.8371    0.1148 O   0  0  0  0  0  0  0  0  0  0  0  0
    2.5576    2.8285    0.7591 C   0  0  0  0  0  0  0  0  0  0  0  0
    3.1669    1.6862    1.4604 N   0  0  0  0  0  0  0  0  0  0  0  0
    4.7856    1.3091    1.1542 S   0  0  0  0  0  0  0  0  0  0  0  0
    5.2746    0.8452    2.4385 O   0  0  0  0  0  0  0  0  0  0  0  0
    5.3741    2.4286    0.4705 O   0  0  0  0  0  0  0  0  0  0  0  0
    4.7592   -0.0847    0.0689 C   0  0  0  0  0  0  0  0  0  0  0  0
    4.9370   -1.3649    0.5932 C   0  0  0  0  0  0  0  0  0  0  0  0
    4.9485   -2.4683   -0.2617 C   0  0  0  0  0  0  0  0  0  0  0  0
    4.8030   -2.2874   -1.6386 C   0  0  0  0  0  0  0  0  0  0  0  0
    4.6594   -1.0023   -2.1638 C   0  0  0  0  0  0  0  0  0  0  0  0
    4.6546    0.1037   -1.3087 C   0  0  0  0  0  0  0  0  0  0  0  0
    0.7443    0.6676    1.2049 H   0  0  0  0  0  0  0  0  0  0  0  0
    2.0655    0.7858   -0.9095 H   0  0  0  0  0  0  0  0  0  0  0  0
    0.7154    1.5768   -1.7248 H   0  0  0  0  0  0  0  0  0  0  0  0
   -0.9243    0.1479   -2.8057 H   0  0  0  0  0  0  0  0  0  0  0  0
   -2.0832   -2.0189   -2.9858 H   0  0  0  0  0  0  0  0  0  0  0  0
    0.3912   -3.6299    0.1283 H   0  0  0  0  0  0  0  0  0  0  0  0
    1.5700   -1.4518    0.3043 H   0  0  0  0  0  0  0  0  0  0  0  0
   -3.4123   -5.0883   -1.3678 H   0  0  0  0  0  0  0  0  0  0  0  0
   -3.5068   -3.4958   -2.1129 H   0  0  0  0  0  0  0  0  0  0  0  0
   -4.6911   -3.7056    0.1061 H   0  0  0  0  0  0  0  0  0  0  0  0
   -3.1485   -4.0293    0.8968 H   0  0  0  0  0  0  0  0  0  0  0  0
   -3.6874   -1.4456   -0.6611 H   0  0  0  0  0  0  0  0  0  0  0  0
   -2.3621   -1.7783    0.4624 H   0  0  0  0  0  0  0  0  0  0  0  0
   -4.4531    0.1588    2.5900 H   0  0  0  0  0  0  0  0  0  0  0  0
   -3.4755    0.7622   -0.1201 H   0  0  0  0  0  0  0  0  0  0  0  0
   -1.3976    2.1170   -0.2433 H   0  0  0  0  0  0  0  0  0  0  0  0
   -4.7889    2.3045    1.5244 H   0  0  0  0  0  0  0  0  0  0  0  0
   -3.2431    2.5791    2.3416 H   0  0  0  0  0  0  0  0  0  0  0  0
   -1.7916    4.1585    1.3073 H   0  0  0  0  0  0  0  0  0  0  0  0
   -2.2466    4.8979   -0.1525 H   0  0  0  0  0  0  0  0  0  0  0  0
    0.7100    2.9224    1.8940 H   0  0  0  0  0  0  0  0  0  0  0  0
    0.8367    3.8690   -0.7665 H   0  0  0  0  0  0  0  0  0  0  0  0
    2.8522    2.8305   -0.2916 H   0  0  0  0  0  0  0  0  0  0  0  0
    2.8828    3.7805    1.1935 H   0  0  0  0  0  0  0  0  0  0  0  0
    3.0656    1.7253    2.4766 H   0  0  0  0  0  0  0  0  0  0  0  0
    5.0633   -1.5016    1.6649 H   0  0  0  0  0  0  0  0  0  0  0  0
    5.0713   -3.4674    0.1474 H   0  0  0  0  0  0  0  0  0  0  0  0
    4.8083   -3.1496   -2.3025 H   0  0  0  0  0  0  0  0  0  0  0  0
    4.5534   -0.8606   -3.2371 H   0  0  0  0  0  0  0  0  0  0  0  0
    4.5510    1.1048   -1.7119 H   0  0  0  0  0  0  0  0  0  0  0  0
  1 24  1  0  0  0  0
  1 37  1  1  0  0  0
  2 38  1  0  0  0  0
  2  1  1  0  0  0  0
  3  2  1  0  0  0  0
  3  8  2  0  0  0  0
  4  3  1  0  0  0  0
  5  4  2  0  0  0  0
  5  6  1  0  0  0  0
  6  9  1  0  0  0  0
  6  7  2  0  0  0  0
  7  8  1  0  0  0  0
  7 42  1  0  0  0  0
  8 43  1  0  0  0  0
  9 10  1  0  0  0  0
 10 11  1  0  0  0  0
 11 46  1  0  0  0  0
 11 12  1  0  0  0  0
 11 47  1  0  0  0  0
 12 49  1  0  0  0  0
 12 13  1  0  0  0  0
 13 15  1  0  0  0  0
 13 14  2  0  0  0  0
 15 50  1  0  0  0  0
 16 51  1  6  0  0  0
 16 17  1  0  0  0  0
 16 20  1  0  0  0  0
 16 15  1  0  0  0  0
 17 18  2  0  0  0  0
 19  1  1  0  0  0  0
 19 17  1  0  0  0  0
 20 53  1  0  0  0  0
 20 54  1  0  0  0  0
 21 23  1  0  0  0  0
 21 20  1  0  0  0  0
 22 21  2  0  0  0  0
 23 55  1  0  0  0  0
 24 57  1  1  0  0  0
 25 24  1  0  0  0  0
 26 24  1  0  0  0  0
 26 60  1  0  0  0  0
 26 27  1  0  0  0  0
 27 61  1  0  0  0  0
 28 27  1  0  0  0  0
 28 29  2  0  0  0  0
 30 28  2  0  0  0  0
 31 32  1  0  0  0  0
 31 28  1  0  0  0  0
 32 62  1  0  0  0  0
 33 63  1  0  0  0  0
 33 32  2  0  0  0  0
 34 33  1  0  0  0  0
 35 34  2  0  0  0  0
 35 36  1  0  0  0  0
 36 31  2  0  0  0  0
 39  2  1  0  0  0  0
 40  4  1  0  0  0  0
 41  5  1  0  0  0  0
 44 10  1  0  0  0  0
 45 10  1  0  0  0  0
 48 12  1  0  0  0  0
 52 19  1  0  0  0  0
 56 23  1  0  0  0  0
 58 25  1  0  0  0  0
 59 26  1  0  0  0  0
 64 34  1  0  0  0  0
 65 35  1  0  0  0  0
 66 36  1  0  0  0  0
M  END
