43.7371
 OpenBabel10231816213D

 61 65  0  0  0  0  0  0  0  0999 V2000
    8.1435   -2.2112   -1.6609 N   0  0  0  0  0  0  0  0  0  0  0  0
    7.4994   -1.4693   -2.5783 C   0  0  0  0  0  0  0  0  0  0  0  0
    6.4382   -0.6246   -2.2835 C   0  0  0  0  0  0  0  0  0  0  0  0
    5.9900   -0.4964   -0.9620 C   0  0  0  0  0  0  0  0  0  0  0  0
    6.6359   -1.2925   -0.0139 C   0  0  0  0  0  0  0  0  0  0  0  0
    7.6878   -2.1088   -0.3990 C   0  0  0  0  0  0  0  0  0  0  0  0
    4.9208    0.3264   -0.6100 N   0  0  0  0  0  0  0  0  0  0  0  0
    4.9579    1.0662    0.6572 C   0  0  0  0  0  0  0  0  0  0  0  0
    3.5492    1.1019    1.2603 C   0  0  0  0  0  0  0  0  0  0  0  0
    2.4619    1.0577    0.1762 C   0  0  0  0  0  0  0  0  0  0  0  0
    2.9688    1.7484   -1.0926 C   0  0  0  0  0  0  0  0  0  0  0  0
    4.1426    0.9711   -1.6769 C   0  0  0  0  0  0  0  0  0  0  0  0
    1.2022    1.7469    0.6608 C   0  0  0  0  0  0  0  0  0  0  0  0
    1.0442    2.9574    0.4861 O   0  0  0  0  0  0  0  0  0  0  0  0
    0.2675    0.9833    1.3276 N   0  0  0  0  0  0  0  0  0  0  0  0
   -1.0228    1.5928    1.6677 C   0  0  0  0  0  0  0  0  0  0  0  0
   -2.1793    0.6749    1.2620 C   0  0  0  0  0  0  0  0  0  0  0  0
   -2.0964   -0.6675    1.9362 N   0  0  0  0  0  0  0  0  0  0  0  0
   -0.7312   -0.9745    2.4782 C   0  0  0  0  0  0  0  0  0  0  0  0
    0.3636   -0.4695    1.5350 C   0  0  0  0  0  0  0  0  0  0  0  0
   -2.7444   -1.9933    1.0812 S   0  0  0  0  0  0  0  0  0  0  0  0
   -1.9353   -2.1865   -0.1037 O   0  0  0  0  0  0  0  0  0  0  0  0
   -2.9316   -3.0642    2.0364 O   0  0  0  0  0  0  0  0  0  0  0  0
   -4.3317   -1.4015    0.5856 C   0  0  0  0  0  0  0  0  0  0  0  0
   -4.4859   -0.8544   -0.6922 C   0  0  0  0  0  0  0  0  0  0  0  0
   -5.7202   -0.3300   -1.0797 C   0  0  0  0  0  0  0  0  0  0  0  0
   -6.8117   -0.3914   -0.1779 C   0  0  0  0  0  0  0  0  0  0  0  0
   -6.6392   -0.9710    1.0867 C   0  0  0  0  0  0  0  0  0  0  0  0
   -5.4006   -1.4785    1.4737 C   0  0  0  0  0  0  0  0  0  0  0  0
   -8.0495    0.1370   -0.5780 C   0  0  0  0  0  0  0  0  0  0  0  0
   -8.1988    0.7128   -1.8415 C   0  0  0  0  0  0  0  0  0  0  0  0
   -7.1252    0.7762   -2.7221 C   0  0  0  0  0  0  0  0  0  0  0  0
   -5.8898    0.2564   -2.3454 C   0  0  0  0  0  0  0  0  0  0  0  0
   -9.7251    1.3537   -2.3133 Cl  0  0  0  0  0  0  0  0  0  0  0  0
    7.8616   -1.5666   -3.5979 H   0  0  0  0  0  0  0  0  0  0  0  0
    5.9921   -0.0730   -3.1012 H   0  0  0  0  0  0  0  0  0  0  0  0
    6.3117   -1.3210    1.0205 H   0  0  0  0  0  0  0  0  0  0  0  0
    8.2049   -2.7304    0.3294 H   0  0  0  0  0  0  0  0  0  0  0  0
    5.6527    0.6614    1.3989 H   0  0  0  0  0  0  0  0  0  0  0  0
    5.2988    2.0904    0.4561 H   0  0  0  0  0  0  0  0  0  0  0  0
    3.4179    0.2571    1.9469 H   0  0  0  0  0  0  0  0  0  0  0  0
    3.4531    2.0043    1.8783 H   0  0  0  0  0  0  0  0  0  0  0  0
    2.2411    0.0170   -0.0858 H   0  0  0  0  0  0  0  0  0  0  0  0
    3.2912    2.7703   -0.8511 H   0  0  0  0  0  0  0  0  0  0  0  0
    2.1755    1.8466   -1.8427 H   0  0  0  0  0  0  0  0  0  0  0  0
    4.7686    1.6575   -2.2581 H   0  0  0  0  0  0  0  0  0  0  0  0
    3.7462    0.2017   -2.3515 H   0  0  0  0  0  0  0  0  0  0  0  0
   -1.1387    2.5665    1.1811 H   0  0  0  0  0  0  0  0  0  0  0  0
   -1.0325    1.7647    2.7504 H   0  0  0  0  0  0  0  0  0  0  0  0
   -2.1625    0.5651    0.1718 H   0  0  0  0  0  0  0  0  0  0  0  0
   -3.1286    1.1408    1.5493 H   0  0  0  0  0  0  0  0  0  0  0  0
   -0.6410   -0.4891    3.4566 H   0  0  0  0  0  0  0  0  0  0  0  0
   -0.6136   -2.0483    2.6534 H   0  0  0  0  0  0  0  0  0  0  0  0
    1.3476   -0.7169    1.9403 H   0  0  0  0  0  0  0  0  0  0  0  0
    0.2786   -0.9486    0.5518 H   0  0  0  0  0  0  0  0  0  0  0  0
   -3.6371   -0.8196   -1.3739 H   0  0  0  0  0  0  0  0  0  0  0  0
   -7.4707   -1.0293    1.7874 H   0  0  0  0  0  0  0  0  0  0  0  0
   -5.2724   -1.9204    2.4599 H   0  0  0  0  0  0  0  0  0  0  0  0
   -8.9023    0.1019    0.0979 H   0  0  0  0  0  0  0  0  0  0  0  0
   -7.2429    1.2276   -3.7060 H   0  0  0  0  0  0  0  0  0  0  0  0
   -5.0545    0.3123   -3.0419 H   0  0  0  0  0  0  0  0  0  0  0  0
  1  6  2  0  0  0  0
  2  3  2  0  0  0  0
  2  1  1  0  0  0  0
  3  4  1  0  0  0  0
  4  7  1  0  0  0  0
  4  5  2  0  0  0  0
  5 37  1  0  0  0  0
  6  5  1  0  0  0  0
  6 38  1  0  0  0  0
  7  8  1  0  0  0  0
  8  9  1  0  0  0  0
  8 39  1  0  0  0  0
  9 42  1  0  0  0  0
  9 41  1  0  0  0  0
 10 13  1  0  0  0  0
 10  9  1  0  0  0  0
 11 44  1  0  0  0  0
 11 10  1  0  0  0  0
 12 11  1  0  0  0  0
 12  7  1  0  0  0  0
 13 15  1  0  0  0  0
 14 13  2  0  0  0  0
 15 20  1  0  0  0  0
 15 16  1  0  0  0  0
 16 49  1  0  0  0  0
 17 51  1  0  0  0  0
 17 16  1  0  0  0  0
 17 18  1  0  0  0  0
 18 19  1  0  0  0  0
 19 53  1  0  0  0  0
 19 52  1  0  0  0  0
 20 54  1  0  0  0  0
 20 19  1  0  0  0  0
 21 18  1  0  0  0  0
 21 23  2  0  0  0  0
 22 21  2  0  0  0  0
 24 21  1  0  0  0  0
 24 29  2  0  0  0  0
 25 24  1  0  0  0  0
 26 25  2  0  0  0  0
 26 27  1  0  0  0  0
 27 28  2  0  0  0  0
 28 29  1  0  0  0  0
 28 57  1  0  0  0  0
 29 58  1  0  0  0  0
 30 27  1  0  0  0  0
 30 59  1  0  0  0  0
 31 30  2  0  0  0  0
 32 33  2  0  0  0  0
 32 31  1  0  0  0  0
 33 26  1  0  0  0  0
 34 31  1  0  0  0  0
 35  2  1  0  0  0  0
 36  3  1  0  0  0  0
 40  8  1  0  0  0  0
 43 10  1  0  0  0  0
 45 11  1  0  0  0  0
 46 12  1  0  0  0  0
 47 12  1  0  0  0  0
 48 16  1  0  0  0  0
 50 17  1  0  0  0  0
 55 20  1  0  0  0  0
 56 25  1  0  0  0  0
 60 32  1  0  0  0  0
 61 33  1  0  0  0  0
M  END
