-8.6975
 OpenBabel10231816213D

 66 68  0  0  1  0  0  0  0  0999 V2000
    0.9841    0.3765    0.5345 C   0  0  2  0  0  0  0  0  0  0  0  0
    1.2543   -0.2356   -0.8487 C   0  0  0  0  0  0  0  0  0  0  0  0
    0.1323   -1.1990   -1.2099 C   0  0  0  0  0  0  0  0  0  0  0  0
   -0.7717   -0.9170   -2.2421 C   0  0  0  0  0  0  0  0  0  0  0  0
   -1.8833   -1.7437   -2.4555 C   0  0  0  0  0  0  0  0  0  0  0  0
   -2.1230   -2.8351   -1.6200 C   0  0  0  0  0  0  0  0  0  0  0  0
   -1.2187   -3.1393   -0.6127 C   0  0  0  0  0  0  0  0  0  0  0  0
   -0.0974   -2.3303   -0.4159 C   0  0  0  0  0  0  0  0  0  0  0  0
   -3.2363   -3.5799   -1.8808 O   0  0  0  0  0  0  0  0  0  0  0  0
   -4.1330   -3.7852   -0.7794 C   0  0  0  0  0  0  0  0  0  0  0  0
   -5.1138   -2.6169   -0.5977 C   0  0  0  0  0  0  0  0  0  0  0  0
   -4.4972   -1.3227   -0.0518 C   0  0  0  0  0  0  0  0  0  0  0  0
   -4.0442   -1.4441    1.3880 C   0  0  0  0  0  0  0  0  0  0  0  0
   -4.3526   -2.4230    2.0990 O   0  0  0  0  0  0  0  0  0  0  0  0
   -3.3426   -0.4187    1.9475 N   0  0  0  0  0  0  0  0  0  0  0  0
   -2.7031    0.6991    1.2436 C   0  0  2  0  0  0  0  0  0  0  0  0
   -1.2182    0.6610    1.6003 C   0  0  0  0  0  0  0  0  0  0  0  0
   -0.7950    0.4085    2.7263 O   0  0  0  0  0  0  0  0  0  0  0  0
   -0.3691    0.9238    0.5581 N   0  0  0  0  0  0  0  0  0  0  0  0
   -3.3003    2.0430    1.6097 C   0  0  0  0  0  0  0  0  0  0  0  0
   -2.8325    3.0844    0.6138 C   0  0  0  0  0  0  0  0  0  0  0  0
   -2.2877    2.8143   -0.4545 O   0  0  0  0  0  0  0  0  0  0  0  0
   -3.0803    4.3746    0.9690 N   0  0  0  0  0  0  0  0  0  0  0  0
    2.0126    1.4131    1.0024 C   0  0  2  0  0  0  0  0  0  0  0  0
    1.6551    1.8997    2.3072 O   0  0  0  0  0  0  0  0  0  0  0  0
    2.1374    2.6162    0.0872 C   0  0  0  0  0  0  0  0  0  0  0  0
    2.9685    2.3384   -1.1031 N   0  0  0  0  0  0  0  0  0  0  0  0
    4.6480    2.4858   -0.9182 S   0  0  0  0  0  0  0  0  0  0  0  0
    4.8936    3.3105    0.2437 O   0  0  0  0  0  0  0  0  0  0  0  0
    5.1194    2.8616   -2.2313 O   0  0  0  0  0  0  0  0  0  0  0  0
    5.2322    0.8547   -0.5729 C   0  0  0  0  0  0  0  0  0  0  0  0
    5.6488    0.5370    0.7232 C   0  0  0  0  0  0  0  0  0  0  0  0
    6.1311   -0.7410    1.0067 C   0  0  0  0  0  0  0  0  0  0  0  0
    6.2187   -1.6902   -0.0105 C   0  0  0  0  0  0  0  0  0  0  0  0
    5.8291   -1.3587   -1.3112 C   0  0  0  0  0  0  0  0  0  0  0  0
    5.3432   -0.0819   -1.5969 C   0  0  0  0  0  0  0  0  0  0  0  0
    1.0148   -0.4342    1.2778 H   0  0  0  0  0  0  0  0  0  0  0  0
    1.3014    0.5554   -1.6045 H   0  0  0  0  0  0  0  0  0  0  0  0
    2.2199   -0.7545   -0.8441 H   0  0  0  0  0  0  0  0  0  0  0  0
   -0.6302   -0.0391   -2.8698 H   0  0  0  0  0  0  0  0  0  0  0  0
   -2.5956   -1.5112   -3.2438 H   0  0  0  0  0  0  0  0  0  0  0  0
   -1.3650   -4.0103    0.0155 H   0  0  0  0  0  0  0  0  0  0  0  0
    0.5948   -2.5703    0.3875 H   0  0  0  0  0  0  0  0  0  0  0  0
   -3.6222   -4.0199    0.1604 H   0  0  0  0  0  0  0  0  0  0  0  0
   -4.7190   -4.6744   -1.0548 H   0  0  0  0  0  0  0  0  0  0  0  0
   -5.9018   -2.9349    0.0960 H   0  0  0  0  0  0  0  0  0  0  0  0
   -5.5860   -2.4045   -1.5646 H   0  0  0  0  0  0  0  0  0  0  0  0
   -5.2479   -0.5289   -0.0887 H   0  0  0  0  0  0  0  0  0  0  0  0
   -3.6713   -1.0027   -0.6843 H   0  0  0  0  0  0  0  0  0  0  0  0
   -3.0054   -0.6072    2.8907 H   0  0  0  0  0  0  0  0  0  0  0  0
   -2.8074    0.5438    0.1711 H   0  0  0  0  0  0  0  0  0  0  0  0
   -0.7682    1.2578   -0.3177 H   0  0  0  0  0  0  0  0  0  0  0  0
   -4.3919    1.9779    1.5420 H   0  0  0  0  0  0  0  0  0  0  0  0
   -3.0406    2.3408    2.6311 H   0  0  0  0  0  0  0  0  0  0  0  0
   -3.6316    4.6158    1.7818 H   0  0  0  0  0  0  0  0  0  0  0  0
   -2.8635    5.1137    0.3079 H   0  0  0  0  0  0  0  0  0  0  0  0
    2.9842    0.9258    1.0946 H   0  0  0  0  0  0  0  0  0  0  0  0
    0.9386    1.3275    2.6528 H   0  0  0  0  0  0  0  0  0  0  0  0
    2.5665    3.4572    0.6391 H   0  0  0  0  0  0  0  0  0  0  0  0
    1.1429    2.9410   -0.2442 H   0  0  0  0  0  0  0  0  0  0  0  0
    2.7121    2.9138   -1.9079 H   0  0  0  0  0  0  0  0  0  0  0  0
    5.5771    1.2794    1.5165 H   0  0  0  0  0  0  0  0  0  0  0  0
    6.4365   -0.9925    2.0204 H   0  0  0  0  0  0  0  0  0  0  0  0
    6.5953   -2.6875    0.2073 H   0  0  0  0  0  0  0  0  0  0  0  0
    5.9067   -2.0975   -2.1057 H   0  0  0  0  0  0  0  0  0  0  0  0
    5.0489    0.1800   -2.6094 H   0  0  0  0  0  0  0  0  0  0  0  0
  1 19  1  0  0  0  0
  1 24  1  0  0  0  0
  1 37  1  1  0  0  0
  2 39  1  0  0  0  0
  2  1  1  0  0  0  0
  3  2  1  0  0  0  0
  3  8  2  0  0  0  0
  4  3  1  0  0  0  0
  5  4  2  0  0  0  0
  5  6  1  0  0  0  0
  6  7  2  0  0  0  0
  7  8  1  0  0  0  0
  7 42  1  0  0  0  0
  8 43  1  0  0  0  0
  9  6  1  0  0  0  0
  9 10  1  0  0  0  0
 10 11  1  0  0  0  0
 10 44  1  0  0  0  0
 11 12  1  0  0  0  0
 11 46  1  0  0  0  0
 12 13  1  0  0  0  0
 13 15  1  0  0  0  0
 13 14  2  0  0  0  0
 15 50  1  0  0  0  0
 16 51  1  6  0  0  0
 16 17  1  0  0  0  0
 16 20  1  0  0  0  0
 16 15  1  0  0  0  0
 17 18  2  0  0  0  0
 19 17  1  0  0  0  0
 20 54  1  0  0  0  0
 21 23  1  0  0  0  0
 21 20  1  0  0  0  0
 22 21  2  0  0  0  0
 23 55  1  0  0  0  0
 24 57  1  1  0  0  0
 24 25  1  0  0  0  0
 25 58  1  0  0  0  0
 26 59  1  0  0  0  0
 26 24  1  0  0  0  0
 27 28  1  0  0  0  0
 27 26  1  0  0  0  0
 28 31  1  0  0  0  0
 28 29  2  0  0  0  0
 30 28  2  0  0  0  0
 31 32  2  0  0  0  0
 32 33  1  0  0  0  0
 32 62  1  0  0  0  0
 33 63  1  0  0  0  0
 34 64  1  0  0  0  0
 34 33  2  0  0  0  0
 35 34  1  0  0  0  0
 36 35  2  0  0  0  0
 36 31  1  0  0  0  0
 38  2  1  0  0  0  0
 40  4  1  0  0  0  0
 41  5  1  0  0  0  0
 45 10  1  0  0  0  0
 47 11  1  0  0  0  0
 48 12  1  0  0  0  0
 49 12  1  0  0  0  0
 52 19  1  0  0  0  0
 53 20  1  0  0  0  0
 56 23  1  0  0  0  0
 60 26  1  0  0  0  0
 61 27  1  0  0  0  0
 65 35  1  0  0  0  0
 66 36  1  0  0  0  0
M  END
