47.4417
 OpenBabel10231816213D

 25 25  0  0  1  0  0  0  0  0999 V2000
   -0.1782   -2.6831   -1.0801 O   0  0  0  0  0  0  0  0  0  0  0  0
   -1.3593   -2.1458   -1.4888 C   0  0  0  0  0  0  0  0  0  0  0  0
   -1.9731   -2.7289   -2.3781 O   0  0  0  0  0  0  0  0  0  0  0  0
   -1.7833   -0.9374   -0.7877 C   0  0  0  0  0  0  0  0  0  0  0  0
   -2.9896   -0.4037   -1.0485 N   0  0  0  0  0  0  0  0  0  0  0  0
   -3.1086    0.7149   -0.2560 O   0  0  0  0  0  0  0  0  0  0  0  0
   -1.9900    0.8633    0.4922 C   0  0  0  0  0  0  0  0  0  0  0  0
   -1.1029   -0.1537    0.2047 C   0  0  0  0  0  0  0  0  0  0  0  0
    0.2675   -0.3093    0.7755 C   0  0  0  0  0  0  0  0  0  0  0  0
    1.3149    0.4952   -0.0100 C   0  0  2  0  0  0  0  0  0  0  0  0
    1.4135    0.0228   -1.4150 N   0  0  0  0  0  0  0  0  0  0  0  0
    2.6710    0.4201    0.7108 C   0  0  0  0  0  0  0  0  0  0  0  0
    2.8525    0.2349    1.9025 O   0  0  0  0  0  0  0  0  0  0  0  0
    3.7172    0.6761   -0.1055 O   0  0  0  0  0  0  0  0  0  0  0  0
   -1.9492    2.0344    1.3865 C   0  0  0  0  0  0  0  0  0  0  0  0
   -0.1312   -3.4887   -1.6369 H   0  0  0  0  0  0  0  0  0  0  0  0
    0.5535   -1.3649    0.8367 H   0  0  0  0  0  0  0  0  0  0  0  0
    0.2530    0.0341    1.8188 H   0  0  0  0  0  0  0  0  0  0  0  0
    1.0363    1.5565   -0.0332 H   0  0  0  0  0  0  0  0  0  0  0  0
    1.5557   -0.9850   -1.4199 H   0  0  0  0  0  0  0  0  0  0  0  0
    2.2511    0.4356   -1.8336 H   0  0  0  0  0  0  0  0  0  0  0  0
    4.4873    0.6862    0.4985 H   0  0  0  0  0  0  0  0  0  0  0  0
   -1.1406    1.9427    2.1191 H   0  0  0  0  0  0  0  0  0  0  0  0
   -2.8885    2.1345    1.9370 H   0  0  0  0  0  0  0  0  0  0  0  0
   -1.7791    2.9492    0.8110 H   0  0  0  0  0  0  0  0  0  0  0  0
  2  1  1  0  0  0  0
  2  4  1  0  0  0  0
  3  2  2  0  0  0  0
  4  8  1  0  0  0  0
  5  4  2  0  0  0  0
  5  6  1  0  0  0  0
  6  7  1  0  0  0  0
  7 15  1  0  0  0  0
  8  7  2  0  0  0  0
  8  9  1  0  0  0  0
  9 17  1  0  0  0  0
  9 18  1  0  0  0  0
 10 19  1  6  0  0  0
 10 12  1  0  0  0  0
 10  9  1  0  0  0  0
 11 10  1  0  0  0  0
 12 13  2  0  0  0  0
 14 22  1  0  0  0  0
 14 12  1  0  0  0  0
 15 24  1  0  0  0  0
 15 23  1  0  0  0  0
 16  1  1  0  0  0  0
 20 11  1  0  0  0  0
 21 11  1  0  0  0  0
 25 15  1  0  0  0  0
M  END
