-36.1196
 OpenBabel10231816213D

 24 23  0  0  1  0  0  0  0  0999 V2000
   -0.2820   -0.2956   -0.3242 C   0  0  2  0  0  0  0  0  0  0  0  0
   -0.5735   -1.4510    0.6179 C   0  0  0  0  0  0  0  0  0  0  0  0
   -1.4329   -1.4668    1.4878 O   0  0  0  0  0  0  0  0  0  0  0  0
    0.2578   -2.4960    0.4191 O   0  0  0  0  0  0  0  0  0  0  0  0
    0.9271    0.5390    0.1211 C   0  0  0  0  0  0  0  0  0  0  0  0
    2.2356   -0.2586    0.2364 C   0  0  0  0  0  0  0  0  0  0  0  0
    2.3648   -0.9512    1.5777 C   0  0  0  0  0  0  0  0  0  0  0  0
    1.5840   -0.8085    2.5118 O   0  0  0  0  0  0  0  0  0  0  0  0
    3.4251   -1.7791    1.6649 O   0  0  0  0  0  0  0  0  0  0  0  0
   -1.4942    0.5225   -0.3709 N   0  0  0  0  0  0  0  0  0  0  0  0
   -1.7618    1.3485   -1.4289 C   0  0  0  0  0  0  0  0  0  0  0  0
   -1.0034    1.4618   -2.3857 O   0  0  0  0  0  0  0  0  0  0  0  0
   -3.0564    2.1082   -1.3287 C   0  0  0  0  0  0  0  0  0  0  0  0
   -0.1136   -0.7010   -1.3297 H   0  0  0  0  0  0  0  0  0  0  0  0
    0.0744   -3.1013    1.1694 H   0  0  0  0  0  0  0  0  0  0  0  0
    0.6996    1.0358    1.0730 H   0  0  0  0  0  0  0  0  0  0  0  0
    1.0706    1.3395   -0.6157 H   0  0  0  0  0  0  0  0  0  0  0  0
    2.3031   -0.9980   -0.5704 H   0  0  0  0  0  0  0  0  0  0  0  0
    3.0840    0.4282    0.1572 H   0  0  0  0  0  0  0  0  0  0  0  0
    3.9682   -1.8129    0.8577 H   0  0  0  0  0  0  0  0  0  0  0  0
   -2.1460    0.4307    0.4037 H   0  0  0  0  0  0  0  0  0  0  0  0
   -3.9017    1.4178   -1.2725 H   0  0  0  0  0  0  0  0  0  0  0  0
   -3.0554    2.7563   -0.4488 H   0  0  0  0  0  0  0  0  0  0  0  0
   -3.1733    2.7316   -2.2222 H   0  0  0  0  0  0  0  0  0  0  0  0
  1 14  1  6  0  0  0
  1  5  1  0  0  0  0
  1  2  1  0  0  0  0
  2  3  2  0  0  0  0
  4  2  1  0  0  0  0
  4 15  1  0  0  0  0
  5  6  1  0  0  0  0
  5 16  1  0  0  0  0
  6  7  1  0  0  0  0
  7  9  1  0  0  0  0
  7  8  2  0  0  0  0
 10  1  1  0  0  0  0
 10 21  1  0  0  0  0
 11 13  1  0  0  0  0
 11 10  1  0  0  0  0
 12 11  2  0  0  0  0
 13 22  1  0  0  0  0
 13 23  1  0  0  0  0
 17  5  1  0  0  0  0
 18  6  1  0  0  0  0
 19  6  1  0  0  0  0
 20  9  1  0  0  0  0
 24 13  1  0  0  0  0
M  END
