-24.9486
 OpenBabel10231816213D

 24 23  0  0  1  0  0  0  0  0999 V2000
   -0.4286   -0.6103   -0.4116 C   0  0  2  0  0  0  0  0  0  0  0  0
   -1.1993   -1.3460    0.7120 C   0  0  0  0  0  0  0  0  0  0  0  0
   -2.2643   -0.9826    1.1861 O   0  0  0  0  0  0  0  0  0  0  0  0
   -0.6216   -2.5066    1.1007 O   0  0  0  0  0  0  0  0  0  0  0  0
    0.8449    0.1035    0.0633 C   0  0  0  0  0  0  0  0  0  0  0  0
    1.9078   -0.8222    0.6515 C   0  0  0  0  0  0  0  0  0  0  0  0
    3.2052   -0.0990    0.8867 C   0  0  0  0  0  0  0  0  0  0  0  0
    3.4762    1.0543    0.6066 O   0  0  0  0  0  0  0  0  0  0  0  0
    4.1252   -0.9050    1.4513 O   0  0  0  0  0  0  0  0  0  0  0  0
   -1.3537    0.2686   -1.1408 N   0  0  0  0  0  0  0  0  0  0  0  0
   -1.8443    1.4403   -0.5848 C   0  0  0  0  0  0  0  0  0  0  0  0
   -1.3884    1.9728    0.4216 O   0  0  0  0  0  0  0  0  0  0  0  0
   -3.0324    2.0000   -1.3121 C   0  0  0  0  0  0  0  0  0  0  0  0
   -0.1550   -1.3714   -1.1558 H   0  0  0  0  0  0  0  0  0  0  0  0
    0.1896   -2.7615    0.6267 H   0  0  0  0  0  0  0  0  0  0  0  0
    1.2735    0.6464   -0.7898 H   0  0  0  0  0  0  0  0  0  0  0  0
    0.6108    0.8536    0.8216 H   0  0  0  0  0  0  0  0  0  0  0  0
    2.1063   -1.6592   -0.0275 H   0  0  0  0  0  0  0  0  0  0  0  0
    1.5711   -1.2129    1.6197 H   0  0  0  0  0  0  0  0  0  0  0  0
    4.9088   -0.3280    1.5629 H   0  0  0  0  0  0  0  0  0  0  0  0
   -1.9496   -0.1669   -1.8318 H   0  0  0  0  0  0  0  0  0  0  0  0
   -3.9214    1.4171   -1.0560 H   0  0  0  0  0  0  0  0  0  0  0  0
   -3.1888    3.0393   -1.0076 H   0  0  0  0  0  0  0  0  0  0  0  0
   -2.8717    1.9757   -2.3929 H   0  0  0  0  0  0  0  0  0  0  0  0
  1 14  1  6  0  0  0
  1  5  1  0  0  0  0
  1  2  1  0  0  0  0
  2  4  1  0  0  0  0
  2  3  2  0  0  0  0
  5  6  1  0  0  0  0
  5 17  1  0  0  0  0
  6  7  1  0  0  0  0
  6 19  1  0  0  0  0
  7  9  1  0  0  0  0
  8  7  2  0  0  0  0
  9 20  1  0  0  0  0
 10 11  1  0  0  0  0
 10  1  1  0  0  0  0
 11 12  2  0  0  0  0
 13 22  1  0  0  0  0
 13 23  1  0  0  0  0
 13 11  1  0  0  0  0
 15  4  1  0  0  0  0
 16  5  1  0  0  0  0
 18  6  1  0  0  0  0
 21 10  1  0  0  0  0
 24 13  1  0  0  0  0
M  END
