40.6879
 OpenBabel10231816213D

 61 65  0  0  0  0  0  0  0  0999 V2000
    9.0229    0.3119   -1.5482 N   0  0  0  0  0  0  0  0  0  0  0  0
    8.1148    1.2036   -1.9892 C   0  0  0  0  0  0  0  0  0  0  0  0
    6.8171    1.2893   -1.5112 C   0  0  0  0  0  0  0  0  0  0  0  0
    6.3843    0.4047   -0.5171 C   0  0  0  0  0  0  0  0  0  0  0  0
    7.3179   -0.5319   -0.0626 C   0  0  0  0  0  0  0  0  0  0  0  0
    8.5998   -0.5362   -0.5901 C   0  0  0  0  0  0  0  0  0  0  0  0
    5.0944    0.4512   -0.0112 N   0  0  0  0  0  0  0  0  0  0  0  0
    4.0369    1.1582   -0.7216 C   0  0  0  0  0  0  0  0  0  0  0  0
    2.6897    0.5445   -0.3600 C   0  0  0  0  0  0  0  0  0  0  0  0
    2.3777    0.6809    1.1379 C   0  0  0  0  0  0  0  0  0  0  0  0
    3.6765    0.6962    1.9631 C   0  0  0  0  0  0  0  0  0  0  0  0
    4.7706   -0.1323    1.2912 C   0  0  0  0  0  0  0  0  0  0  0  0
    1.4936   -0.4748    1.5612 C   0  0  0  0  0  0  0  0  0  0  0  0
    1.9782   -1.4595    2.1578 O   0  0  0  0  0  0  0  0  0  0  0  0
    0.1620   -0.4481    1.2532 N   0  0  0  0  0  0  0  0  0  0  0  0
   -0.5532    0.6370    0.5706 C   0  0  0  0  0  0  0  0  0  0  0  0
   -1.1789    0.1578   -0.7378 C   0  0  0  0  0  0  0  0  0  0  0  0
   -1.7261   -1.2030   -0.5942 N   0  0  0  0  0  0  0  0  0  0  0  0
   -1.9493   -1.6726    0.7876 C   0  0  0  0  0  0  0  0  0  0  0  0
   -0.6375   -1.6379    1.5675 C   0  0  0  0  0  0  0  0  0  0  0  0
   -2.7995   -1.7348   -1.7522 S   0  0  0  0  0  0  0  0  0  0  0  0
   -2.3226   -1.2598   -3.0380 O   0  0  0  0  0  0  0  0  0  0  0  0
   -3.0476   -3.1348   -1.5045 O   0  0  0  0  0  0  0  0  0  0  0  0
   -4.2782   -0.8185   -1.3430 C   0  0  0  0  0  0  0  0  0  0  0  0
   -5.0974   -1.2242   -0.2841 C   0  0  0  0  0  0  0  0  0  0  0  0
   -6.2321   -0.4712    0.0556 C   0  0  0  0  0  0  0  0  0  0  0  0
   -6.5578    0.6892   -0.6881 C   0  0  0  0  0  0  0  0  0  0  0  0
   -5.7285    1.0709   -1.7571 C   0  0  0  0  0  0  0  0  0  0  0  0
   -4.5965    0.3174   -2.0815 C   0  0  0  0  0  0  0  0  0  0  0  0
   -7.6992    1.4321   -0.3433 C   0  0  0  0  0  0  0  0  0  0  0  0
   -8.5016    1.0279    0.7266 C   0  0  0  0  0  0  0  0  0  0  0  0
   -8.1805   -0.1105    1.4621 C   0  0  0  0  0  0  0  0  0  0  0  0
   -7.0510   -0.8573    1.1288 C   0  0  0  0  0  0  0  0  0  0  0  0
   -9.8967    1.9444    1.1430 Cl  0  0  0  0  0  0  0  0  0  0  0  0
    8.4661    1.8812   -2.7617 H   0  0  0  0  0  0  0  0  0  0  0  0
    6.1666    2.0579   -1.9110 H   0  0  0  0  0  0  0  0  0  0  0  0
    7.0564   -1.2748    0.6817 H   0  0  0  0  0  0  0  0  0  0  0  0
    9.3388   -1.2533   -0.2446 H   0  0  0  0  0  0  0  0  0  0  0  0
    4.0664    2.2254   -0.4725 H   0  0  0  0  0  0  0  0  0  0  0  0
    4.1845    1.0527   -1.8005 H   0  0  0  0  0  0  0  0  0  0  0  0
    2.7227   -0.5232   -0.6192 H   0  0  0  0  0  0  0  0  0  0  0  0
    1.8939    0.9874   -0.9634 H   0  0  0  0  0  0  0  0  0  0  0  0
    1.8450    1.6177    1.3474 H   0  0  0  0  0  0  0  0  0  0  0  0
    4.0245    1.7332    2.0642 H   0  0  0  0  0  0  0  0  0  0  0  0
    3.5005    0.3174    2.9758 H   0  0  0  0  0  0  0  0  0  0  0  0
    4.4418   -1.1706    1.1713 H   0  0  0  0  0  0  0  0  0  0  0  0
    5.6573   -0.1235    1.9310 H   0  0  0  0  0  0  0  0  0  0  0  0
   -1.3451    0.9780    1.2510 H   0  0  0  0  0  0  0  0  0  0  0  0
    0.0936    1.4929    0.3922 H   0  0  0  0  0  0  0  0  0  0  0  0
   -0.4224    0.1231   -1.5294 H   0  0  0  0  0  0  0  0  0  0  0  0
   -1.9598    0.8599   -1.0399 H   0  0  0  0  0  0  0  0  0  0  0  0
   -2.7060   -1.0463    1.2755 H   0  0  0  0  0  0  0  0  0  0  0  0
   -2.3171   -2.6989    0.7610 H   0  0  0  0  0  0  0  0  0  0  0  0
   -0.8225   -1.6494    2.6503 H   0  0  0  0  0  0  0  0  0  0  0  0
   -0.0374   -2.5267    1.3393 H   0  0  0  0  0  0  0  0  0  0  0  0
   -4.8447   -2.1163    0.2848 H   0  0  0  0  0  0  0  0  0  0  0  0
   -5.9581    1.9578   -2.3443 H   0  0  0  0  0  0  0  0  0  0  0  0
   -3.9546    0.6277   -2.9075 H   0  0  0  0  0  0  0  0  0  0  0  0
   -7.9692    2.3263   -0.9047 H   0  0  0  0  0  0  0  0  0  0  0  0
   -8.8144   -0.4172    2.2952 H   0  0  0  0  0  0  0  0  0  0  0  0
   -6.8084   -1.7484    1.7070 H   0  0  0  0  0  0  0  0  0  0  0  0
  1  6  1  0  0  0  0
  2  1  2  0  0  0  0
  2  3  1  0  0  0  0
  3  4  2  0  0  0  0
  4  5  1  0  0  0  0
  4  7  1  0  0  0  0
  5 37  1  0  0  0  0
  6 38  1  0  0  0  0
  6  5  2  0  0  0  0
  7 12  1  0  0  0  0
  8 39  1  0  0  0  0
  8  9  1  0  0  0  0
  8  7  1  0  0  0  0
  9 10  1  0  0  0  0
 10 43  1  0  0  0  0
 10 13  1  0  0  0  0
 10 11  1  0  0  0  0
 11 44  1  0  0  0  0
 11 45  1  0  0  0  0
 12 47  1  0  0  0  0
 12 11  1  0  0  0  0
 13 14  2  0  0  0  0
 15 13  1  0  0  0  0
 15 20  1  0  0  0  0
 16 48  1  0  0  0  0
 16 15  1  0  0  0  0
 17 18  1  0  0  0  0
 17 16  1  0  0  0  0
 18 19  1  0  0  0  0
 19 52  1  0  0  0  0
 19 20  1  0  0  0  0
 20 54  1  0  0  0  0
 21 23  2  0  0  0  0
 21 24  1  0  0  0  0
 21 18  1  0  0  0  0
 22 21  2  0  0  0  0
 24 25  2  0  0  0  0
 25 26  1  0  0  0  0
 25 56  1  0  0  0  0
 26 33  2  0  0  0  0
 27 30  2  0  0  0  0
 27 26  1  0  0  0  0
 28 27  1  0  0  0  0
 29 28  2  0  0  0  0
 29 24  1  0  0  0  0
 30 31  1  0  0  0  0
 31 34  1  0  0  0  0
 31 32  2  0  0  0  0
 32 60  1  0  0  0  0
 33 32  1  0  0  0  0
 33 61  1  0  0  0  0
 35  2  1  0  0  0  0
 36  3  1  0  0  0  0
 40  8  1  0  0  0  0
 41  9  1  0  0  0  0
 42  9  1  0  0  0  0
 46 12  1  0  0  0  0
 49 16  1  0  0  0  0
 50 17  1  0  0  0  0
 51 17  1  0  0  0  0
 53 19  1  0  0  0  0
 55 20  1  0  0  0  0
 57 28  1  0  0  0  0
 58 29  1  0  0  0  0
 59 30  1  0  0  0  0
M  END
