66.1574
 OpenBabel10231816213D

 50 52  0  0  1  0  0  0  0  0999 V2000
    6.6810    0.8038   -0.9500 O   0  0  0  0  0  0  0  0  0  0  0  0
    6.1134    1.4310    0.0946 C   0  0  0  0  0  0  0  0  0  0  0  0
    6.6960    2.3197    0.6934 O   0  0  0  0  0  0  0  0  0  0  0  0
    4.7073    0.9677    0.3823 C   0  0  1  0  0  0  0  0  0  0  0  0
    3.7468    1.5025   -0.6790 C   0  0  0  0  0  0  0  0  0  0  0  0
    2.3122    1.0721   -0.3780 C   0  0  0  0  0  0  0  0  0  0  0  0
    2.1562   -0.4639   -0.2959 C   0  0  2  0  0  0  0  0  0  0  0  0
    3.1528   -0.9814    0.7772 C   0  0  0  0  0  0  0  0  0  0  0  0
    4.6028   -0.5560    0.4946 C   0  0  0  0  0  0  0  0  0  0  0  0
    2.4951   -1.0418   -1.6155 C   0  0  0  0  0  0  0  0  0  0  0  0
    2.7984   -1.5210   -2.6399 N   0  0  0  0  0  0  0  0  0  0  0  0
    0.7310   -0.8950    0.0688 C   0  0  0  0  0  0  0  0  0  0  0  0
    0.4051   -2.2647    0.0364 C   0  0  0  0  0  0  0  0  0  0  0  0
   -0.8738   -2.7152    0.3646 C   0  0  0  0  0  0  0  0  0  0  0  0
   -1.8597   -1.8006    0.7268 C   0  0  0  0  0  0  0  0  0  0  0  0
   -3.1434   -2.1162    1.0617 O   0  0  0  0  0  0  0  0  0  0  0  0
   -3.4976   -3.4852    1.0609 C   0  0  0  0  0  0  0  0  0  0  0  0
   -1.5591   -0.4352    0.7337 C   0  0  0  0  0  0  0  0  0  0  0  0
   -0.2782    0.0156    0.4210 C   0  0  0  0  0  0  0  0  0  0  0  0
   -2.5139    0.4563    1.1549 O   0  0  0  0  0  0  0  0  0  0  0  0
   -3.1189    1.1831    0.0830 C   0  0  0  0  0  0  0  0  0  0  0  0
   -4.0471    0.3557   -0.8061 C   0  0  0  0  0  0  0  0  0  0  0  0
   -4.9492    1.4063   -1.4388 C   0  0  0  0  0  0  0  0  0  0  0  0
   -5.2476    2.3698   -0.2910 C   0  0  0  0  0  0  0  0  0  0  0  0
   -4.0672    2.2334    0.6834 C   0  0  0  0  0  0  0  0  0  0  0  0
    7.5658    1.2122   -1.0558 H   0  0  0  0  0  0  0  0  0  0  0  0
    4.4351    1.4020    1.3530 H   0  0  0  0  0  0  0  0  0  0  0  0
    4.0417    1.1417   -1.6721 H   0  0  0  0  0  0  0  0  0  0  0  0
    3.7997    2.5955   -0.7203 H   0  0  0  0  0  0  0  0  0  0  0  0
    2.0220    1.5166    0.5855 H   0  0  0  0  0  0  0  0  0  0  0  0
    1.6396    1.4834   -1.1409 H   0  0  0  0  0  0  0  0  0  0  0  0
    3.1124   -2.0744    0.8723 H   0  0  0  0  0  0  0  0  0  0  0  0
    2.8624   -0.5759    1.7613 H   0  0  0  0  0  0  0  0  0  0  0  0
    5.2653   -0.9259    1.2878 H   0  0  0  0  0  0  0  0  0  0  0  0
    4.9509   -1.0271   -0.4342 H   0  0  0  0  0  0  0  0  0  0  0  0
    1.1556   -2.9982   -0.2584 H   0  0  0  0  0  0  0  0  0  0  0  0
   -1.0673   -3.7821    0.3288 H   0  0  0  0  0  0  0  0  0  0  0  0
   -3.4034   -3.9202    0.0607 H   0  0  0  0  0  0  0  0  0  0  0  0
   -4.5456   -3.5349    1.3644 H   0  0  0  0  0  0  0  0  0  0  0  0
   -2.8986   -4.0471    1.7834 H   0  0  0  0  0  0  0  0  0  0  0  0
   -0.0958    1.0841    0.4607 H   0  0  0  0  0  0  0  0  0  0  0  0
   -2.3552    1.6861   -0.5228 H   0  0  0  0  0  0  0  0  0  0  0  0
   -4.6363   -0.3418   -0.2019 H   0  0  0  0  0  0  0  0  0  0  0  0
   -3.4929   -0.2314   -1.5472 H   0  0  0  0  0  0  0  0  0  0  0  0
   -5.8550    0.9771   -1.8809 H   0  0  0  0  0  0  0  0  0  0  0  0
   -4.4135    1.9308   -2.2391 H   0  0  0  0  0  0  0  0  0  0  0  0
   -6.1842    2.0937    0.2117 H   0  0  0  0  0  0  0  0  0  0  0  0
   -5.3791    3.3975   -0.6493 H   0  0  0  0  0  0  0  0  0  0  0  0
   -3.5522    3.1899    0.8378 H   0  0  0  0  0  0  0  0  0  0  0  0
   -4.4135    1.9078    1.6727 H   0  0  0  0  0  0  0  0  0  0  0  0
  1  2  1  0  0  0  0
  2  4  1  0  0  0  0
  2  3  2  0  0  0  0
  4  9  1  0  0  0  0
  4 27  1  1  0  0  0
  5  6  1  0  0  0  0
  5  4  1  0  0  0  0
  6  7  1  0  0  0  0
  6 30  1  0  0  0  0
  7 10  1  6  0  0  0
  7 12  1  0  0  0  0
  7  8  1  0  0  0  0
  8 32  1  0  0  0  0
  8 33  1  0  0  0  0
  9  8  1  0  0  0  0
  9 34  1  0  0  0  0
 11 10  3  0  0  0  0
 12 19  1  0  0  0  0
 13 12  2  0  0  0  0
 13 14  1  0  0  0  0
 14 15  2  0  0  0  0
 15 18  1  0  0  0  0
 15 16  1  0  0  0  0
 17 16  1  0  0  0  0
 17 39  1  0  0  0  0
 17 40  1  0  0  0  0
 18 20  1  0  0  0  0
 19 41  1  0  0  0  0
 19 18  2  0  0  0  0
 21 25  1  0  0  0  0
 21 20  1  0  0  0  0
 22 43  1  0  0  0  0
 22 21  1  0  0  0  0
 23 22  1  0  0  0  0
 23 24  1  0  0  0  0
 24 47  1  0  0  0  0
 24 25  1  0  0  0  0
 25 49  1  0  0  0  0
 25 50  1  0  0  0  0
 26  1  1  0  0  0  0
 28  5  1  0  0  0  0
 29  5  1  0  0  0  0
 31  6  1  0  0  0  0
 35  9  1  0  0  0  0
 36 13  1  0  0  0  0
 37 14  1  0  0  0  0
 38 17  1  0  0  0  0
 42 21  1  0  0  0  0
 44 22  1  0  0  0  0
 45 23  1  0  0  0  0
 46 23  1  0  0  0  0
 48 24  1  0  0  0  0
M  END
