40.8564
 OpenBabel10231816213D

 25 25  0  0  1  0  0  0  0  0999 V2000
   -1.7697   -3.5903   -0.7863 O   0  0  0  0  0  0  0  0  0  0  0  0
   -0.9480   -2.5166   -0.9194 C   0  0  0  0  0  0  0  0  0  0  0  0
    0.1400   -2.6262   -1.4468 O   0  0  0  0  0  0  0  0  0  0  0  0
   -1.5024   -1.2880   -0.3615 C   0  0  0  0  0  0  0  0  0  0  0  0
   -2.6924   -1.2773    0.2623 N   0  0  0  0  0  0  0  0  0  0  0  0
   -2.9010    0.0217    0.6792 O   0  0  0  0  0  0  0  0  0  0  0  0
   -1.8425    0.7865    0.3091 C   0  0  0  0  0  0  0  0  0  0  0  0
   -0.9130    0.0093   -0.3490 C   0  0  0  0  0  0  0  0  0  0  0  0
    0.4209    0.4397   -0.8665 C   0  0  0  0  0  0  0  0  0  0  0  0
    1.5726   -0.0118    0.0421 C   0  0  2  0  0  0  0  0  0  0  0  0
    1.4877    0.4494    1.4601 N   0  0  0  0  0  0  0  0  0  0  0  0
    2.9136    0.4504   -0.5302 C   0  0  0  0  0  0  0  0  0  0  0  0
    3.1649    0.5605   -1.7254 O   0  0  0  0  0  0  0  0  0  0  0  0
    3.8349    0.6968    0.4336 O   0  0  0  0  0  0  0  0  0  0  0  0
   -1.8836    2.2085    0.6935 C   0  0  0  0  0  0  0  0  0  0  0  0
   -1.2907   -4.3335   -1.1954 H   0  0  0  0  0  0  0  0  0  0  0  0
    0.5758    0.0296   -1.8740 H   0  0  0  0  0  0  0  0  0  0  0  0
    0.4373    1.5309   -0.9811 H   0  0  0  0  0  0  0  0  0  0  0  0
    1.6096   -1.1029    0.0518 H   0  0  0  0  0  0  0  0  0  0  0  0
    1.0540    1.3795    1.4800 H   0  0  0  0  0  0  0  0  0  0  0  0
    0.8280   -0.1665    1.9498 H   0  0  0  0  0  0  0  0  0  0  0  0
    3.3692    0.5958    1.2957 H   0  0  0  0  0  0  0  0  0  0  0  0
   -1.1474    2.7822    0.1224 H   0  0  0  0  0  0  0  0  0  0  0  0
   -2.8695    2.6394    0.5022 H   0  0  0  0  0  0  0  0  0  0  0  0
   -1.6483    2.3329    1.7539 H   0  0  0  0  0  0  0  0  0  0  0  0
  2  1  1  0  0  0  0
  2  4  1  0  0  0  0
  3  2  2  0  0  0  0
  4  8  1  0  0  0  0
  4  5  2  0  0  0  0
  5  6  1  0  0  0  0
  7  6  1  0  0  0  0
  7 15  1  0  0  0  0
  8  7  2  0  0  0  0
  9  8  1  0  0  0  0
  9 10  1  0  0  0  0
 10 19  1  1  0  0  0
 10 11  1  0  0  0  0
 11 20  1  0  0  0  0
 11 21  1  0  0  0  0
 12 10  1  0  0  0  0
 12 14  1  0  0  0  0
 13 12  2  0  0  0  0
 14 22  1  0  0  0  0
 15 25  1  0  0  0  0
 16  1  1  0  0  0  0
 17  9  1  0  0  0  0
 18  9  1  0  0  0  0
 23 15  1  0  0  0  0
 24 15  1  0  0  0  0
M  END
