-41.8143
 OpenBabel10231816213D

 24 23  0  0  1  0  0  0  0  0999 V2000
   -0.4647   -0.9886   -0.0426 C   0  0  2  0  0  0  0  0  0  0  0  0
   -1.3214   -2.0992    0.5634 C   0  0  0  0  0  0  0  0  0  0  0  0
   -2.5224   -2.0472    0.7640 O   0  0  0  0  0  0  0  0  0  0  0  0
   -0.6230   -3.2225    0.8185 O   0  0  0  0  0  0  0  0  0  0  0  0
    0.6997   -0.6026    0.8871 C   0  0  0  0  0  0  0  0  0  0  0  0
    2.0394   -0.5329    0.1414 C   0  0  0  0  0  0  0  0  0  0  0  0
    2.8947    0.5910    0.6699 C   0  0  0  0  0  0  0  0  0  0  0  0
    3.9321    0.4213    1.2969 O   0  0  0  0  0  0  0  0  0  0  0  0
    2.3982    1.8126    0.3824 O   0  0  0  0  0  0  0  0  0  0  0  0
   -1.3548    0.1483   -0.3174 N   0  0  0  0  0  0  0  0  0  0  0  0
   -0.9255    1.2768   -0.9560 C   0  0  0  0  0  0  0  0  0  0  0  0
    0.2621    1.4752   -1.2198 O   0  0  0  0  0  0  0  0  0  0  0  0
   -1.9809    2.3033   -1.2559 C   0  0  0  0  0  0  0  0  0  0  0  0
   -0.1139   -1.3499   -1.0127 H   0  0  0  0  0  0  0  0  0  0  0  0
   -1.2823   -3.8497    1.1852 H   0  0  0  0  0  0  0  0  0  0  0  0
    0.8120   -1.3233    1.7074 H   0  0  0  0  0  0  0  0  0  0  0  0
    0.4808    0.3529    1.3796 H   0  0  0  0  0  0  0  0  0  0  0  0
    2.5889   -1.4747    0.2580 H   0  0  0  0  0  0  0  0  0  0  0  0
    1.9289   -0.3808   -0.9377 H   0  0  0  0  0  0  0  0  0  0  0  0
    1.5953    1.7755   -0.1959 H   0  0  0  0  0  0  0  0  0  0  0  0
   -2.3465    0.0154   -0.1151 H   0  0  0  0  0  0  0  0  0  0  0  0
   -1.9480    2.5438   -2.3229 H   0  0  0  0  0  0  0  0  0  0  0  0
   -1.7630    3.2022   -0.6723 H   0  0  0  0  0  0  0  0  0  0  0  0
   -2.9857    1.9530   -1.0054 H   0  0  0  0  0  0  0  0  0  0  0  0
  1 14  1  6  0  0  0
  1  2  1  0  0  0  0
  1  5  1  0  0  0  0
  2  3  2  0  0  0  0
  2  4  1  0  0  0  0
  4 15  1  0  0  0  0
  5 17  1  0  0  0  0
  5 16  1  0  0  0  0
  6 18  1  0  0  0  0
  6  7  1  0  0  0  0
  6  5  1  0  0  0  0
  7  8  2  0  0  0  0
  9  7  1  0  0  0  0
 10 21  1  0  0  0  0
 10  1  1  0  0  0  0
 11 10  1  0  0  0  0
 12 11  2  0  0  0  0
 13 24  1  0  0  0  0
 13 11  1  0  0  0  0
 13 23  1  0  0  0  0
 19  6  1  0  0  0  0
 20  9  1  0  0  0  0
 22 13  1  0  0  0  0
M  END
