39.6603
 OpenBabel10231816213D

 61 65  0  0  0  0  0  0  0  0999 V2000
    8.3988    1.7662   -1.7350 N   0  0  0  0  0  0  0  0  0  0  0  0
    7.6959    1.0282   -2.6156 C   0  0  0  0  0  0  0  0  0  0  0  0
    6.4593    0.4576   -2.3411 C   0  0  0  0  0  0  0  0  0  0  0  0
    5.8785    0.6338   -1.0781 C   0  0  0  0  0  0  0  0  0  0  0  0
    6.5928    1.4216   -0.1679 C   0  0  0  0  0  0  0  0  0  0  0  0
    7.8261    1.9469   -0.5280 C   0  0  0  0  0  0  0  0  0  0  0  0
    4.6167    0.1110   -0.7257 N   0  0  0  0  0  0  0  0  0  0  0  0
    3.8248   -0.4699   -1.8119 C   0  0  0  0  0  0  0  0  0  0  0  0
    2.3711   -0.6519   -1.3764 C   0  0  0  0  0  0  0  0  0  0  0  0
    2.2950   -1.4818   -0.0967 C   0  0  0  0  0  0  0  0  0  0  0  0
    3.1331   -0.8169    1.0039 C   0  0  0  0  0  0  0  0  0  0  0  0
    4.5841   -0.6784    0.5187 C   0  0  0  0  0  0  0  0  0  0  0  0
    0.8909   -1.9282    0.2412 C   0  0  0  0  0  0  0  0  0  0  0  0
    0.5098   -3.0399   -0.1969 O   0  0  0  0  0  0  0  0  0  0  0  0
    0.0325   -1.1583    0.9658 N   0  0  0  0  0  0  0  0  0  0  0  0
   -1.2437   -1.7762    1.3748 C   0  0  0  0  0  0  0  0  0  0  0  0
   -1.7941   -1.1299    2.6390 C   0  0  0  0  0  0  0  0  0  0  0  0
   -1.9420    0.3306    2.4698 N   0  0  0  0  0  0  0  0  0  0  0  0
   -1.1719    0.9456    1.3738 C   0  0  0  0  0  0  0  0  0  0  0  0
    0.1899    0.2660    1.2825 C   0  0  0  0  0  0  0  0  0  0  0  0
   -3.3637    1.0683    2.9320 S   0  0  0  0  0  0  0  0  0  0  0  0
   -3.8171    0.4066    4.1381 O   0  0  0  0  0  0  0  0  0  0  0  0
   -3.1331    2.4934    2.8868 O   0  0  0  0  0  0  0  0  0  0  0  0
   -4.4814    0.6261    1.6140 C   0  0  0  0  0  0  0  0  0  0  0  0
   -4.5122    1.3714    0.4327 C   0  0  0  0  0  0  0  0  0  0  0  0
   -5.3432    0.9783   -0.6282 C   0  0  0  0  0  0  0  0  0  0  0  0
   -6.1716   -0.1605   -0.4887 C   0  0  0  0  0  0  0  0  0  0  0  0
   -6.1466   -0.8814    0.7176 C   0  0  0  0  0  0  0  0  0  0  0  0
   -5.3103   -0.4858    1.7654 C   0  0  0  0  0  0  0  0  0  0  0  0
   -7.0026   -0.5437   -1.5557 C   0  0  0  0  0  0  0  0  0  0  0  0
   -7.0046    0.1938   -2.7415 C   0  0  0  0  0  0  0  0  0  0  0  0
   -6.1895    1.3095   -2.8816 C   0  0  0  0  0  0  0  0  0  0  0  0
   -5.3593    1.7045   -1.8296 C   0  0  0  0  0  0  0  0  0  0  0  0
   -8.0239   -0.2824   -4.0438 Cl  0  0  0  0  0  0  0  0  0  0  0  0
    8.1641    0.8924   -3.5864 H   0  0  0  0  0  0  0  0  0  0  0  0
    5.9866   -0.1299   -3.1185 H   0  0  0  0  0  0  0  0  0  0  0  0
    6.1821    1.6530    0.8075 H   0  0  0  0  0  0  0  0  0  0  0  0
    8.3976    2.5505    0.1713 H   0  0  0  0  0  0  0  0  0  0  0  0
    3.8411    0.2079   -2.6705 H   0  0  0  0  0  0  0  0  0  0  0  0
    4.2525   -1.4327   -2.1141 H   0  0  0  0  0  0  0  0  0  0  0  0
    1.9152    0.3329   -1.2250 H   0  0  0  0  0  0  0  0  0  0  0  0
    1.8130   -1.1428   -2.1782 H   0  0  0  0  0  0  0  0  0  0  0  0
    2.7849   -2.4447   -0.3102 H   0  0  0  0  0  0  0  0  0  0  0  0
    3.0965   -1.4022    1.9298 H   0  0  0  0  0  0  0  0  0  0  0  0
    2.7607    0.1860    1.2421 H   0  0  0  0  0  0  0  0  0  0  0  0
    5.1794   -0.2018    1.2994 H   0  0  0  0  0  0  0  0  0  0  0  0
    5.0039   -1.6756    0.3457 H   0  0  0  0  0  0  0  0  0  0  0  0
   -1.9670   -1.6731    0.5542 H   0  0  0  0  0  0  0  0  0  0  0  0
   -1.0792   -2.8473    1.5302 H   0  0  0  0  0  0  0  0  0  0  0  0
   -2.7518   -1.5786    2.9003 H   0  0  0  0  0  0  0  0  0  0  0  0
   -1.0998   -1.3008    3.4713 H   0  0  0  0  0  0  0  0  0  0  0  0
   -1.7034    0.8431    0.4220 H   0  0  0  0  0  0  0  0  0  0  0  0
   -1.0412    2.0050    1.5958 H   0  0  0  0  0  0  0  0  0  0  0  0
    0.7047    0.3568    2.2494 H   0  0  0  0  0  0  0  0  0  0  0  0
    0.7977    0.7440    0.5188 H   0  0  0  0  0  0  0  0  0  0  0  0
   -3.8763    2.2483    0.3333 H   0  0  0  0  0  0  0  0  0  0  0  0
   -6.7790   -1.7579    0.8484 H   0  0  0  0  0  0  0  0  0  0  0  0
   -5.2990   -1.0543    2.6949 H   0  0  0  0  0  0  0  0  0  0  0  0
   -7.6506   -1.4154   -1.4683 H   0  0  0  0  0  0  0  0  0  0  0  0
   -6.1974    1.8815   -3.8121 H   0  0  0  0  0  0  0  0  0  0  0  0
   -4.7237    2.5817   -1.9449 H   0  0  0  0  0  0  0  0  0  0  0  0
  1  6  2  0  0  0  0
  2  3  2  0  0  0  0
  2  1  1  0  0  0  0
  3  4  1  0  0  0  0
  4  7  1  0  0  0  0
  4  5  2  0  0  0  0
  5 37  1  0  0  0  0
  6  5  1  0  0  0  0
  6 38  1  0  0  0  0
  7 12  1  0  0  0  0
  8  9  1  0  0  0  0
  8  7  1  0  0  0  0
  9 41  1  0  0  0  0
  9 10  1  0  0  0  0
 10 13  1  0  0  0  0
 10 11  1  0  0  0  0
 11 45  1  0  0  0  0
 11 44  1  0  0  0  0
 12 11  1  0  0  0  0
 12 46  1  0  0  0  0
 13 15  1  0  0  0  0
 14 13  2  0  0  0  0
 15 20  1  0  0  0  0
 15 16  1  0  0  0  0
 16 49  1  0  0  0  0
 16 17  1  0  0  0  0
 17 50  1  0  0  0  0
 17 51  1  0  0  0  0
 18 17  1  0  0  0  0
 18 21  1  0  0  0  0
 19 53  1  0  0  0  0
 19 18  1  0  0  0  0
 20 19  1  0  0  0  0
 20 54  1  0  0  0  0
 21 22  2  0  0  0  0
 23 21  2  0  0  0  0
 24 29  1  0  0  0  0
 24 21  1  0  0  0  0
 25 24  2  0  0  0  0
 26 27  1  0  0  0  0
 26 25  1  0  0  0  0
 27 28  1  0  0  0  0
 28 57  1  0  0  0  0
 28 29  2  0  0  0  0
 29 58  1  0  0  0  0
 30 59  1  0  0  0  0
 30 27  2  0  0  0  0
 31 30  1  0  0  0  0
 32 31  2  0  0  0  0
 32 33  1  0  0  0  0
 33 26  2  0  0  0  0
 34 31  1  0  0  0  0
 35  2  1  0  0  0  0
 36  3  1  0  0  0  0
 39  8  1  0  0  0  0
 40  8  1  0  0  0  0
 42  9  1  0  0  0  0
 43 10  1  0  0  0  0
 47 12  1  0  0  0  0
 48 16  1  0  0  0  0
 52 19  1  0  0  0  0
 55 20  1  0  0  0  0
 56 25  1  0  0  0  0
 60 32  1  0  0  0  0
 61 33  1  0  0  0  0
M  END
