-7.65292
 OpenBabel10231816213D

 66 68  0  0  1  0  0  0  0  0999 V2000
    0.7525   -0.7018   -0.6385 C   0  0  2  0  0  0  0  0  0  0  0  0
    0.3596   -1.5364   -1.8891 C   0  0  0  0  0  0  0  0  0  0  0  0
   -0.8641   -2.4036   -1.6482 C   0  0  0  0  0  0  0  0  0  0  0  0
   -0.9624   -3.2105   -0.5096 C   0  0  0  0  0  0  0  0  0  0  0  0
   -2.1715   -3.8207   -0.1709 C   0  0  0  0  0  0  0  0  0  0  0  0
   -3.2874   -3.6425   -0.9774 C   0  0  0  0  0  0  0  0  0  0  0  0
   -3.1728   -2.9546   -2.1826 C   0  0  0  0  0  0  0  0  0  0  0  0
   -1.9693   -2.3196   -2.5060 C   0  0  0  0  0  0  0  0  0  0  0  0
   -4.5170   -4.1290   -0.6470 O   0  0  0  0  0  0  0  0  0  0  0  0
   -5.0691   -3.5802    0.5605 C   0  0  0  0  0  0  0  0  0  0  0  0
   -5.6036   -2.1475    0.3993 C   0  0  0  0  0  0  0  0  0  0  0  0
   -4.5606   -1.0189    0.3444 C   0  0  0  0  0  0  0  0  0  0  0  0
   -3.7870   -0.8673    1.6338 C   0  0  0  0  0  0  0  0  0  0  0  0
   -4.1014   -1.4630    2.6824 O   0  0  0  0  0  0  0  0  0  0  0  0
   -2.7337    0.0016    1.6731 N   0  0  0  0  0  0  0  0  0  0  0  0
   -2.3887    1.0302    0.6693 C   0  0  2  0  0  0  0  0  0  0  0  0
   -1.4053    0.5136   -0.3812 C   0  0  0  0  0  0  0  0  0  0  0  0
   -1.4460    0.9100   -1.5438 O   0  0  0  0  0  0  0  0  0  0  0  0
   -0.3891   -0.2450    0.1448 N   0  0  0  0  0  0  0  0  0  0  0  0
   -1.7810    2.2303    1.3850 C   0  0  0  0  0  0  0  0  0  0  0  0
   -1.2631    3.2720    0.4230 C   0  0  0  0  0  0  0  0  0  0  0  0
   -0.0819    3.3366    0.0781 O   0  0  0  0  0  0  0  0  0  0  0  0
   -2.1906    4.1261   -0.0814 N   0  0  0  0  0  0  0  0  0  0  0  0
    1.6179    0.5017   -1.0229 C   0  0  2  0  0  0  0  0  0  0  0  0
    2.7082    0.0627   -1.8388 O   0  0  0  0  0  0  0  0  0  0  0  0
    2.1984    1.2290    0.2019 C   0  0  0  0  0  0  0  0  0  0  0  0
    2.8344    2.4803   -0.2757 N   0  0  0  0  0  0  0  0  0  0  0  0
    3.9985    3.1966    0.7064 S   0  0  0  0  0  0  0  0  0  0  0  0
    3.4973    3.1868    2.0646 O   0  0  0  0  0  0  0  0  0  0  0  0
    4.3680    4.4245    0.0439 O   0  0  0  0  0  0  0  0  0  0  0  0
    5.3588    2.0724    0.6042 C   0  0  0  0  0  0  0  0  0  0  0  0
    6.2299    2.1317   -0.4791 C   0  0  0  0  0  0  0  0  0  0  0  0
    7.2991    1.2404   -0.5478 C   0  0  0  0  0  0  0  0  0  0  0  0
    7.5023    0.3057    0.4730 C   0  0  0  0  0  0  0  0  0  0  0  0
    6.6358    0.2649    1.5659 C   0  0  0  0  0  0  0  0  0  0  0  0
    5.5651    1.1548    1.6353 C   0  0  0  0  0  0  0  0  0  0  0  0
    1.3364   -1.3493    0.0284 H   0  0  0  0  0  0  0  0  0  0  0  0
    0.1575   -0.8559   -2.7294 H   0  0  0  0  0  0  0  0  0  0  0  0
    1.2112   -2.1599   -2.1974 H   0  0  0  0  0  0  0  0  0  0  0  0
   -0.1084   -3.3225    0.1522 H   0  0  0  0  0  0  0  0  0  0  0  0
   -2.2434   -4.4213    0.7271 H   0  0  0  0  0  0  0  0  0  0  0  0
   -4.0416   -2.8476   -2.8270 H   0  0  0  0  0  0  0  0  0  0  0  0
   -1.9082   -1.7112   -3.4064 H   0  0  0  0  0  0  0  0  0  0  0  0
   -4.3826   -3.6562    1.4101 H   0  0  0  0  0  0  0  0  0  0  0  0
   -5.9273   -4.2324    0.7876 H   0  0  0  0  0  0  0  0  0  0  0  0
   -6.2200   -2.1054   -0.5061 H   0  0  0  0  0  0  0  0  0  0  0  0
   -6.2564   -1.9405    1.2571 H   0  0  0  0  0  0  0  0  0  0  0  0
   -5.0982   -0.0783    0.1771 H   0  0  0  0  0  0  0  0  0  0  0  0
   -3.8662   -1.1273   -0.4858 H   0  0  0  0  0  0  0  0  0  0  0  0
   -2.3878    0.1404    2.6183 H   0  0  0  0  0  0  0  0  0  0  0  0
   -3.2917    1.3134    0.1288 H   0  0  0  0  0  0  0  0  0  0  0  0
   -0.5590   -0.6681    1.0480 H   0  0  0  0  0  0  0  0  0  0  0  0
   -2.5290    2.6737    2.0573 H   0  0  0  0  0  0  0  0  0  0  0  0
   -0.9375    1.9092    2.0095 H   0  0  0  0  0  0  0  0  0  0  0  0
   -1.8679    4.8587   -0.7047 H   0  0  0  0  0  0  0  0  0  0  0  0
   -3.1289    4.1989    0.2866 H   0  0  0  0  0  0  0  0  0  0  0  0
    1.0074    1.2099   -1.5955 H   0  0  0  0  0  0  0  0  0  0  0  0
    3.2917    0.8419   -1.9154 H   0  0  0  0  0  0  0  0  0  0  0  0
    2.9531    0.5934    0.6680 H   0  0  0  0  0  0  0  0  0  0  0  0
    1.4243    1.4707    0.9331 H   0  0  0  0  0  0  0  0  0  0  0  0
    2.1261    3.2023   -0.4747 H   0  0  0  0  0  0  0  0  0  0  0  0
    6.0723    2.8689   -1.2617 H   0  0  0  0  0  0  0  0  0  0  0  0
    7.9778    1.2746   -1.3963 H   0  0  0  0  0  0  0  0  0  0  0  0
    8.3395   -0.3873    0.4164 H   0  0  0  0  0  0  0  0  0  0  0  0
    6.7925   -0.4574    2.3636 H   0  0  0  0  0  0  0  0  0  0  0  0
    4.8839    1.1333    2.4829 H   0  0  0  0  0  0  0  0  0  0  0  0
  1 37  1  1  0  0  0
  1 19  1  0  0  0  0
  2  3  1  0  0  0  0
  2  1  1  0  0  0  0
  3  4  2  0  0  0  0
  4  5  1  0  0  0  0
  4 40  1  0  0  0  0
  5 41  1  0  0  0  0
  6  9  1  0  0  0  0
  6  5  2  0  0  0  0
  7  6  1  0  0  0  0
  8  7  2  0  0  0  0
  8  3  1  0  0  0  0
  9 10  1  0  0  0  0
 10 45  1  0  0  0  0
 10 44  1  0  0  0  0
 11 10  1  0  0  0  0
 11 47  1  0  0  0  0
 12 11  1  0  0  0  0
 12 13  1  0  0  0  0
 13 15  1  0  0  0  0
 13 14  2  0  0  0  0
 15 50  1  0  0  0  0
 16 51  1  6  0  0  0
 16 20  1  0  0  0  0
 16 15  1  0  0  0  0
 17 19  1  0  0  0  0
 17 16  1  0  0  0  0
 18 17  2  0  0  0  0
 19 52  1  0  0  0  0
 20 54  1  0  0  0  0
 20 53  1  0  0  0  0
 21 20  1  0  0  0  0
 22 21  2  0  0  0  0
 23 56  1  0  0  0  0
 23 21  1  0  0  0  0
 24 57  1  6  0  0  0
 24  1  1  0  0  0  0
 24 26  1  0  0  0  0
 25 24  1  0  0  0  0
 26 59  1  0  0  0  0
 26 60  1  0  0  0  0
 27 26  1  0  0  0  0
 27 28  1  0  0  0  0
 28 29  2  0  0  0  0
 30 28  2  0  0  0  0
 31 28  1  0  0  0  0
 31 36  2  0  0  0  0
 32 31  1  0  0  0  0
 33 32  2  0  0  0  0
 33 34  1  0  0  0  0
 34 35  2  0  0  0  0
 35 36  1  0  0  0  0
 35 65  1  0  0  0  0
 36 66  1  0  0  0  0
 38  2  1  0  0  0  0
 39  2  1  0  0  0  0
 42  7  1  0  0  0  0
 43  8  1  0  0  0  0
 46 11  1  0  0  0  0
 48 12  1  0  0  0  0
 49 12  1  0  0  0  0
 55 23  1  0  0  0  0
 58 25  1  0  0  0  0
 61 27  1  0  0  0  0
 62 32  1  0  0  0  0
 63 33  1  0  0  0  0
 64 34  1  0  0  0  0
M  END
