46.8631
 OpenBabel10231816213D

 40 42  0  0  0  0  0  0  0  0999 V2000
    5.9439    1.4759    1.7441 O   0  0  0  0  0  0  0  0  0  0  0  0
    4.7972    1.9343    1.8576 C   0  0  0  0  0  0  0  0  0  0  0  0
    4.5606    3.3192    2.3926 C   0  0  0  0  0  0  0  0  0  0  0  0
    3.6175    1.1116    1.4611 C   0  0  0  0  0  0  0  0  0  0  0  0
    2.3052    1.5812    1.5701 C   0  0  0  0  0  0  0  0  0  0  0  0
    1.2357    0.7638    1.1881 C   0  0  0  0  0  0  0  0  0  0  0  0
    1.4628   -0.5245    0.6903 C   0  0  0  0  0  0  0  0  0  0  0  0
    2.7687   -0.9878    0.5734 C   0  0  0  0  0  0  0  0  0  0  0  0
    3.8414   -0.1764    0.9622 C   0  0  0  0  0  0  0  0  0  0  0  0
    0.3324   -1.2712    0.3105 N   0  0  0  0  0  0  0  0  0  0  0  0
    0.3071   -2.4709   -0.3680 C   0  0  0  0  0  0  0  0  0  0  0  0
    1.2889   -3.1832   -0.5788 O   0  0  0  0  0  0  0  0  0  0  0  0
   -1.0129   -2.9159   -0.8167 C   0  0  0  0  0  0  0  0  0  0  0  0
   -1.3431   -4.2740   -1.0685 C   0  0  0  0  0  0  0  0  0  0  0  0
   -2.6292   -4.4543   -1.3737 N   0  0  0  0  0  0  0  0  0  0  0  0
   -3.1249   -3.2092   -1.3548 N   0  0  0  0  0  0  0  0  0  0  0  0
   -2.1918   -2.2216   -1.0925 C   0  0  0  0  0  0  0  0  0  0  0  0
   -2.5504   -0.7967   -1.1741 C   0  0  0  0  0  0  0  0  0  0  0  0
   -1.5958    0.1535   -1.5745 C   0  0  0  0  0  0  0  0  0  0  0  0
   -1.9025    1.5149   -1.6215 C   0  0  0  0  0  0  0  0  0  0  0  0
   -0.6875    2.6530   -2.0673 Cl  0  0  0  0  0  0  0  0  0  0  0  0
   -3.1856    1.9391   -1.2978 C   0  0  0  0  0  0  0  0  0  0  0  0
   -3.5502    3.2581   -1.3100 O   0  0  0  0  0  0  0  0  0  0  0  0
   -4.1666    1.0184   -0.9445 C   0  0  0  0  0  0  0  0  0  0  0  0
   -3.8482   -0.3399   -0.8938 C   0  0  0  0  0  0  0  0  0  0  0  0
   -4.8148   -1.2548   -0.5681 O   0  0  0  0  0  0  0  0  0  0  0  0
    3.9585    3.2813    3.3044 H   0  0  0  0  0  0  0  0  0  0  0  0
    5.5260    3.7776    2.6317 H   0  0  0  0  0  0  0  0  0  0  0  0
    4.0572    3.9388    1.6456 H   0  0  0  0  0  0  0  0  0  0  0  0
    2.0880    2.5741    1.9505 H   0  0  0  0  0  0  0  0  0  0  0  0
    0.2213    1.1487    1.2753 H   0  0  0  0  0  0  0  0  0  0  0  0
    2.9680   -1.9848    0.1930 H   0  0  0  0  0  0  0  0  0  0  0  0
    4.8637   -0.5418    0.8782 H   0  0  0  0  0  0  0  0  0  0  0  0
   -0.5564   -0.8379    0.5143 H   0  0  0  0  0  0  0  0  0  0  0  0
   -0.6865   -5.1337   -0.9995 H   0  0  0  0  0  0  0  0  0  0  0  0
   -4.1227   -3.0823   -1.5172 H   0  0  0  0  0  0  0  0  0  0  0  0
   -0.5948   -0.1610   -1.8564 H   0  0  0  0  0  0  0  0  0  0  0  0
   -2.7730    3.7850   -1.5777 H   0  0  0  0  0  0  0  0  0  0  0  0
   -5.1627    1.3809   -0.7142 H   0  0  0  0  0  0  0  0  0  0  0  0
   -5.6447   -0.7874   -0.3731 H   0  0  0  0  0  0  0  0  0  0  0  0
  1  2  2  0  0  0  0
  2  3  1  0  0  0  0
  3 28  1  0  0  0  0
  3 27  1  0  0  0  0
  4  5  1  0  0  0  0
  4  2  1  0  0  0  0
  5 30  1  0  0  0  0
  6 31  1  0  0  0  0
  6  5  2  0  0  0  0
  7  6  1  0  0  0  0
  8  7  2  0  0  0  0
  8  9  1  0  0  0  0
  9  4  2  0  0  0  0
 10 34  1  0  0  0  0
 10  7  1  0  0  0  0
 11 10  1  0  0  0  0
 12 11  2  0  0  0  0
 13 11  1  0  0  0  0
 14 35  1  0  0  0  0
 14 13  1  0  0  0  0
 15 16  1  0  0  0  0
 15 14  2  0  0  0  0
 16 17  1  0  0  0  0
 17 13  2  0  0  0  0
 18 17  1  0  0  0  0
 18 25  2  0  0  0  0
 19 18  1  0  0  0  0
 20 19  2  0  0  0  0
 20 22  1  0  0  0  0
 21 20  1  0  0  0  0
 22 24  2  0  0  0  0
 23 22  1  0  0  0  0
 24 25  1  0  0  0  0
 24 39  1  0  0  0  0
 25 26  1  0  0  0  0
 26 40  1  0  0  0  0
 29  3  1  0  0  0  0
 32  8  1  0  0  0  0
 33  9  1  0  0  0  0
 36 16  1  0  0  0  0
 37 19  1  0  0  0  0
 38 23  1  0  0  0  0
M  END
