38.7945
 OpenBabel10231816213D

 25 25  0  0  1  0  0  0  0  0999 V2000
   -1.7452   -2.9665   -2.0360 O   0  0  0  0  0  0  0  0  0  0  0  0
   -0.9417   -2.2582   -1.2034 C   0  0  0  0  0  0  0  0  0  0  0  0
    0.1925   -2.6524   -0.9652 O   0  0  0  0  0  0  0  0  0  0  0  0
   -1.5284   -1.0284   -0.6803 C   0  0  0  0  0  0  0  0  0  0  0  0
   -2.7446   -0.6035   -1.0643 N   0  0  0  0  0  0  0  0  0  0  0  0
   -2.9767    0.5740   -0.3908 O   0  0  0  0  0  0  0  0  0  0  0  0
   -1.9086    0.8669    0.3921 C   0  0  0  0  0  0  0  0  0  0  0  0
   -0.9444   -0.1041    0.2423 C   0  0  0  0  0  0  0  0  0  0  0  0
    0.3927   -0.1628    0.9085 C   0  0  0  0  0  0  0  0  0  0  0  0
    1.4971    0.5514    0.1078 C   0  0  2  0  0  0  0  0  0  0  0  0
    1.9150   -0.1460   -1.1482 N   0  0  0  0  0  0  0  0  0  0  0  0
    2.7396    0.7351    0.9924 C   0  0  0  0  0  0  0  0  0  0  0  0
    2.7206    1.0285    2.1776 O   0  0  0  0  0  0  0  0  0  0  0  0
    3.8870    0.5859    0.2807 O   0  0  0  0  0  0  0  0  0  0  0  0
   -2.0111    2.1051    1.1894 C   0  0  0  0  0  0  0  0  0  0  0  0
   -1.2135   -3.7444   -2.2990 H   0  0  0  0  0  0  0  0  0  0  0  0
    0.3001    0.3062    1.8974 H   0  0  0  0  0  0  0  0  0  0  0  0
    0.6733   -1.2016    1.1202 H   0  0  0  0  0  0  0  0  0  0  0  0
    1.1712    1.5602   -0.1722 H   0  0  0  0  0  0  0  0  0  0  0  0
    1.7679   -1.1599   -1.0220 H   0  0  0  0  0  0  0  0  0  0  0  0
    1.2507    0.1027   -1.8874 H   0  0  0  0  0  0  0  0  0  0  0  0
    3.6121    0.3243   -0.6341 H   0  0  0  0  0  0  0  0  0  0  0  0
   -1.1940    2.1688    1.9141 H   0  0  0  0  0  0  0  0  0  0  0  0
   -2.9547    2.1369    1.7425 H   0  0  0  0  0  0  0  0  0  0  0  0
   -1.9569    2.9818    0.5379 H   0  0  0  0  0  0  0  0  0  0  0  0
  1  2  1  0  0  0  0
  2  3  2  0  0  0  0
  2  4  1  0  0  0  0
  4  8  1  0  0  0  0
  5  4  2  0  0  0  0
  5  6  1  0  0  0  0
  6  7  1  0  0  0  0
  7 15  1  0  0  0  0
  8  7  2  0  0  0  0
  8  9  1  0  0  0  0
  9 18  1  0  0  0  0
  9 17  1  0  0  0  0
 10 19  1  6  0  0  0
 10  9  1  0  0  0  0
 10 12  1  0  0  0  0
 11 20  1  0  0  0  0
 11 10  1  0  0  0  0
 12 13  2  0  0  0  0
 14 12  1  0  0  0  0
 15 24  1  0  0  0  0
 15 23  1  0  0  0  0
 16  1  1  0  0  0  0
 21 11  1  0  0  0  0
 22 14  1  0  0  0  0
 25 15  1  0  0  0  0
M  END
