62.6579
 OpenBabel10231816213D

 40 42  0  0  0  0  0  0  0  0999 V2000
    6.1717    0.4295    2.5324 O   0  0  0  0  0  0  0  0  0  0  0  0
    4.9977    0.8133    2.5362 C   0  0  0  0  0  0  0  0  0  0  0  0
    4.4814    1.7123    3.6386 C   0  0  0  0  0  0  0  0  0  0  0  0
    4.0668    0.4039    1.4551 C   0  0  0  0  0  0  0  0  0  0  0  0
    2.7248    0.8132    1.4163 C   0  0  0  0  0  0  0  0  0  0  0  0
    1.8810    0.3859    0.3825 C   0  0  0  0  0  0  0  0  0  0  0  0
    2.3637   -0.4523   -0.6219 C   0  0  0  0  0  0  0  0  0  0  0  0
    3.7099   -0.8280   -0.6155 C   0  0  0  0  0  0  0  0  0  0  0  0
    4.5494   -0.4200    0.4291 C   0  0  0  0  0  0  0  0  0  0  0  0
    1.5558   -0.8903   -1.6801 N   0  0  0  0  0  0  0  0  0  0  0  0
    0.1971   -1.1209   -1.7307 C   0  0  0  0  0  0  0  0  0  0  0  0
   -0.3368   -1.1576   -2.8391 O   0  0  0  0  0  0  0  0  0  0  0  0
   -0.5444   -1.4165   -0.5084 C   0  0  0  0  0  0  0  0  0  0  0  0
   -0.1144   -2.1696    0.6171 C   0  0  0  0  0  0  0  0  0  0  0  0
   -1.0726   -2.3545    1.5247 N   0  0  0  0  0  0  0  0  0  0  0  0
   -2.1281   -1.7335    0.9838 N   0  0  0  0  0  0  0  0  0  0  0  0
   -1.8715   -1.1008   -0.2121 C   0  0  0  0  0  0  0  0  0  0  0  0
   -2.8942   -0.2837   -0.8889 C   0  0  0  0  0  0  0  0  0  0  0  0
   -2.5091    0.6955   -1.8179 C   0  0  0  0  0  0  0  0  0  0  0  0
   -3.4480    1.5122   -2.4459 C   0  0  0  0  0  0  0  0  0  0  0  0
   -2.9065    2.6984   -3.5778 Cl  0  0  0  0  0  0  0  0  0  0  0  0
   -4.7999    1.3689   -2.1470 C   0  0  0  0  0  0  0  0  0  0  0  0
   -5.7022    2.1840   -2.7709 O   0  0  0  0  0  0  0  0  0  0  0  0
   -5.2186    0.4112   -1.2241 C   0  0  0  0  0  0  0  0  0  0  0  0
   -4.2674   -0.4057   -0.6014 C   0  0  0  0  0  0  0  0  0  0  0  0
   -4.6805   -1.3372    0.3205 O   0  0  0  0  0  0  0  0  0  0  0  0
    5.2880    1.9129    4.3398 H   0  0  0  0  0  0  0  0  0  0  0  0
    3.6645    1.2203    4.1762 H   0  0  0  0  0  0  0  0  0  0  0  0
    4.1388    2.6636    3.2192 H   0  0  0  0  0  0  0  0  0  0  0  0
    2.3101    1.4659    2.1764 H   0  0  0  0  0  0  0  0  0  0  0  0
    0.8560    0.7478    0.3615 H   0  0  0  0  0  0  0  0  0  0  0  0
    4.1062   -1.4801   -1.3910 H   0  0  0  0  0  0  0  0  0  0  0  0
    5.5898   -0.7443    0.4510 H   0  0  0  0  0  0  0  0  0  0  0  0
    1.9948   -0.9507   -2.5918 H   0  0  0  0  0  0  0  0  0  0  0  0
    0.8571   -2.6067    0.8063 H   0  0  0  0  0  0  0  0  0  0  0  0
   -3.0204   -1.7643    1.4709 H   0  0  0  0  0  0  0  0  0  0  0  0
   -1.4651    0.8410   -2.0677 H   0  0  0  0  0  0  0  0  0  0  0  0
   -6.6025    1.9755   -2.4823 H   0  0  0  0  0  0  0  0  0  0  0  0
   -6.2710    0.3030   -0.9895 H   0  0  0  0  0  0  0  0  0  0  0  0
   -5.6518   -1.3417    0.3663 H   0  0  0  0  0  0  0  0  0  0  0  0
  1  2  2  0  0  0  0
  2  3  1  0  0  0  0
  3 28  1  0  0  0  0
  3 27  1  0  0  0  0
  4  2  1  0  0  0  0
  5  4  1  0  0  0  0
  5 30  1  0  0  0  0
  6  5  2  0  0  0  0
  7  8  2  0  0  0  0
  7  6  1  0  0  0  0
  8  9  1  0  0  0  0
  9 33  1  0  0  0  0
  9  4  2  0  0  0  0
 10  7  1  0  0  0  0
 11 10  1  0  0  0  0
 11 13  1  0  0  0  0
 12 11  2  0  0  0  0
 13 17  2  0  0  0  0
 13 14  1  0  0  0  0
 14 35  1  0  0  0  0
 14 15  2  0  0  0  0
 16 36  1  0  0  0  0
 16 15  1  0  0  0  0
 17 16  1  0  0  0  0
 18 25  1  0  0  0  0
 18 17  1  0  0  0  0
 19 18  2  0  0  0  0
 20 22  2  0  0  0  0
 20 19  1  0  0  0  0
 21 20  1  0  0  0  0
 22 24  1  0  0  0  0
 23 38  1  0  0  0  0
 23 22  1  0  0  0  0
 24 39  1  0  0  0  0
 24 25  2  0  0  0  0
 25 26  1  0  0  0  0
 26 40  1  0  0  0  0
 29  3  1  0  0  0  0
 31  6  1  0  0  0  0
 32  8  1  0  0  0  0
 34 10  1  0  0  0  0
 37 19  1  0  0  0  0
M  END
