55.4956
 OpenBabel10231816213D

 36 36  0  0  1  0  0  0  0  0999 V2000
    4.3145    1.4965    0.9855 C   0  0  0  0  0  0  0  0  0  0  0  0
    2.8656    1.8729    0.9796 C   0  0  0  0  0  0  0  0  0  0  0  0
    3.3632    0.7763    0.0743 C   0  0  0  0  0  0  0  0  0  0  0  0
    3.0406   -0.6208    0.3791 N   0  0  0  0  0  0  0  0  0  0  0  0
    1.9382   -1.1592   -0.4642 C   0  0  0  0  0  0  0  0  0  0  0  0
    0.5472   -0.6517    0.0117 C   0  0  0  0  0  0  0  0  0  0  0  0
   -0.6167   -1.5759   -0.4810 C   0  0  1  0  0  0  0  0  0  0  0  0
   -0.4976   -2.9183    0.1361 N   0  0  0  0  0  0  0  0  0  0  0  0
   -2.0078   -0.9746   -0.1428 C   0  0  0  0  0  0  0  0  0  0  0  0
   -2.5314   -0.0439   -1.2481 C   0  0  0  0  0  0  0  0  0  0  0  0
   -3.8854    0.5893   -0.9203 C   0  0  0  0  0  0  0  0  0  0  0  0
   -3.8055    1.6663    0.1507 C   0  0  0  0  0  0  0  0  0  0  0  0
    0.3333    0.6694   -0.4542 O   0  0  0  0  0  0  0  0  0  0  0  0
    0.5324   -0.5978    1.4448 O   0  0  0  0  0  0  0  0  0  0  0  0
    5.0175    2.1906    0.5425 H   0  0  0  0  0  0  0  0  0  0  0  0
    4.6900    0.9775    1.8601 H   0  0  0  0  0  0  0  0  0  0  0  0
    2.5750    2.8063    0.5139 H   0  0  0  0  0  0  0  0  0  0  0  0
    2.2804    1.6117    1.8519 H   0  0  0  0  0  0  0  0  0  0  0  0
    3.4512    1.0161   -0.9861 H   0  0  0  0  0  0  0  0  0  0  0  0
    3.8660   -1.2029    0.2116 H   0  0  0  0  0  0  0  0  0  0  0  0
    2.1049   -0.9232   -1.5213 H   0  0  0  0  0  0  0  0  0  0  0  0
    1.9905   -2.2493   -0.3581 H   0  0  0  0  0  0  0  0  0  0  0  0
   -0.5395   -1.6972   -1.5681 H   0  0  0  0  0  0  0  0  0  0  0  0
   -0.4654   -2.7780    1.1506 H   0  0  0  0  0  0  0  0  0  0  0  0
   -1.3381   -3.4600   -0.0505 H   0  0  0  0  0  0  0  0  0  0  0  0
   -1.9649   -0.4466    0.8162 H   0  0  0  0  0  0  0  0  0  0  0  0
   -2.7458   -1.7777   -0.0171 H   0  0  0  0  0  0  0  0  0  0  0  0
   -1.8158    0.7518   -1.4779 H   0  0  0  0  0  0  0  0  0  0  0  0
   -2.6430   -0.6315   -2.1675 H   0  0  0  0  0  0  0  0  0  0  0  0
   -4.2856    1.0439   -1.8332 H   0  0  0  0  0  0  0  0  0  0  0  0
   -4.5978   -0.1857   -0.6119 H   0  0  0  0  0  0  0  0  0  0  0  0
   -4.7954    2.1031    0.3182 H   0  0  0  0  0  0  0  0  0  0  0  0
   -3.1311    2.4744   -0.1560 H   0  0  0  0  0  0  0  0  0  0  0  0
   -3.4511    1.2671    1.1048 H   0  0  0  0  0  0  0  0  0  0  0  0
    0.7290    1.2154    0.2408 H   0  0  0  0  0  0  0  0  0  0  0  0
    1.4782   -0.6341    1.6859 H   0  0  0  0  0  0  0  0  0  0  0  0
  1 16  1  0  0  0  0
  2  1  1  0  0  0  0
  2 18  1  0  0  0  0
  3  4  1  0  0  0  0
  3  2  1  0  0  0  0
  3  1  1  0  0  0  0
  5 22  1  0  0  0  0
  5  6  1  0  0  0  0
  5  4  1  0  0  0  0
  6 14  1  0  0  0  0
  7 23  1  6  0  0  0
  7  9  1  0  0  0  0
  7  6  1  0  0  0  0
  7  8  1  0  0  0  0
  8 24  1  0  0  0  0
  9 27  1  0  0  0  0
  9 26  1  0  0  0  0
 10 11  1  0  0  0  0
 10  9  1  0  0  0  0
 11 31  1  0  0  0  0
 11 12  1  0  0  0  0
 12 32  1  0  0  0  0
 12 34  1  0  0  0  0
 13  6  1  0  0  0  0
 13 35  1  0  0  0  0
 14 36  1  0  0  0  0
 15  1  1  0  0  0  0
 17  2  1  0  0  0  0
 19  3  1  0  0  0  0
 20  4  1  0  0  0  0
 21  5  1  0  0  0  0
 25  8  1  0  0  0  0
 28 10  1  0  0  0  0
 29 10  1  0  0  0  0
 30 11  1  0  0  0  0
 33 12  1  0  0  0  0
M  END
