69.6473
 OpenBabel10231816213D

 50 52  0  0  1  0  0  0  0  0999 V2000
    5.8561    2.1130   -1.5872 O   0  0  0  0  0  0  0  0  0  0  0  0
    4.9703    2.0349   -0.5753 C   0  0  0  0  0  0  0  0  0  0  0  0
    5.2285    2.5226    0.5116 O   0  0  0  0  0  0  0  0  0  0  0  0
    3.7068    1.3006   -0.9754 C   0  0  1  0  0  0  0  0  0  0  0  0
    4.0251   -0.1832   -1.2251 C   0  0  0  0  0  0  0  0  0  0  0  0
    2.7856   -1.0539   -1.0089 C   0  0  0  0  0  0  0  0  0  0  0  0
    2.3234   -1.0384    0.4842 C   0  0  2  0  0  0  0  0  0  0  0  0
    2.6625    0.3469    1.1180 C   0  0  0  0  0  0  0  0  0  0  0  0
    2.6033    1.4773    0.0848 C   0  0  0  0  0  0  0  0  0  0  0  0
    3.1090   -2.0621    1.2396 C   0  0  0  0  0  0  0  0  0  0  0  0
    3.7349   -2.8599    1.7992 N   0  0  0  0  0  0  0  0  0  0  0  0
    0.8286   -1.4059    0.5148 C   0  0  0  0  0  0  0  0  0  0  0  0
    0.4180   -2.6978    0.1329 C   0  0  0  0  0  0  0  0  0  0  0  0
   -0.9321   -3.0673    0.1356 C   0  0  0  0  0  0  0  0  0  0  0  0
   -1.9175   -2.1535    0.5099 C   0  0  0  0  0  0  0  0  0  0  0  0
   -3.2556   -2.4217    0.5793 O   0  0  0  0  0  0  0  0  0  0  0  0
   -3.6784   -3.7145    0.1738 C   0  0  0  0  0  0  0  0  0  0  0  0
   -1.5239   -0.8612    0.8717 C   0  0  0  0  0  0  0  0  0  0  0  0
   -0.1732   -0.5003    0.8927 C   0  0  0  0  0  0  0  0  0  0  0  0
   -2.4047    0.0810    1.3372 O   0  0  0  0  0  0  0  0  0  0  0  0
   -3.2271    0.6529    0.3172 C   0  0  0  0  0  0  0  0  0  0  0  0
   -2.4628    1.6460   -0.5603 C   0  0  0  0  0  0  0  0  0  0  0  0
   -3.5267    2.6364   -0.9975 C   0  0  0  0  0  0  0  0  0  0  0  0
   -4.3508    2.8424    0.2622 C   0  0  0  0  0  0  0  0  0  0  0  0
   -4.3068    1.5062    1.0020 C   0  0  0  0  0  0  0  0  0  0  0  0
    6.6156    2.6002   -1.2032 H   0  0  0  0  0  0  0  0  0  0  0  0
    3.3479    1.7676   -1.9023 H   0  0  0  0  0  0  0  0  0  0  0  0
    4.8281   -0.5238   -0.5582 H   0  0  0  0  0  0  0  0  0  0  0  0
    4.4051   -0.3145   -2.2451 H   0  0  0  0  0  0  0  0  0  0  0  0
    2.9907   -2.0768   -1.3507 H   0  0  0  0  0  0  0  0  0  0  0  0
    1.9873   -0.6722   -1.6627 H   0  0  0  0  0  0  0  0  0  0  0  0
    3.6815    0.3328    1.5307 H   0  0  0  0  0  0  0  0  0  0  0  0
    2.0251    0.5690    1.9809 H   0  0  0  0  0  0  0  0  0  0  0  0
    2.6828    2.4472    0.5875 H   0  0  0  0  0  0  0  0  0  0  0  0
    1.6251    1.4724   -0.4129 H   0  0  0  0  0  0  0  0  0  0  0  0
    1.1529   -3.4494   -0.1574 H   0  0  0  0  0  0  0  0  0  0  0  0
   -1.1722   -4.0872   -0.1481 H   0  0  0  0  0  0  0  0  0  0  0  0
   -3.2692   -4.4871    0.8327 H   0  0  0  0  0  0  0  0  0  0  0  0
   -4.7679   -3.7441    0.2561 H   0  0  0  0  0  0  0  0  0  0  0  0
   -3.4163   -3.9049   -0.8724 H   0  0  0  0  0  0  0  0  0  0  0  0
    0.0537    0.5118    1.2144 H   0  0  0  0  0  0  0  0  0  0  0  0
   -3.7169   -0.1114   -0.3002 H   0  0  0  0  0  0  0  0  0  0  0  0
   -1.6753    2.1489    0.0137 H   0  0  0  0  0  0  0  0  0  0  0  0
   -1.9856    1.1550   -1.4144 H   0  0  0  0  0  0  0  0  0  0  0  0
   -4.1490    2.2068   -1.7909 H   0  0  0  0  0  0  0  0  0  0  0  0
   -3.0970    3.5715   -1.3688 H   0  0  0  0  0  0  0  0  0  0  0  0
   -3.8936    3.6206    0.8855 H   0  0  0  0  0  0  0  0  0  0  0  0
   -5.3738    3.1604    0.0386 H   0  0  0  0  0  0  0  0  0  0  0  0
   -4.0932    1.6644    2.0654 H   0  0  0  0  0  0  0  0  0  0  0  0
   -5.2782    1.0021    0.9448 H   0  0  0  0  0  0  0  0  0  0  0  0
  1 26  1  0  0  0  0
  1  2  1  0  0  0  0
  2  3  2  0  0  0  0
  4 27  1  6  0  0  0
  4  2  1  0  0  0  0
  4  9  1  0  0  0  0
  5  6  1  0  0  0  0
  5  4  1  0  0  0  0
  5 28  1  0  0  0  0
  6  7  1  0  0  0  0
  7 12  1  1  0  0  0
  7  8  1  0  0  0  0
  7 10  1  0  0  0  0
  8 32  1  0  0  0  0
  8 33  1  0  0  0  0
  9 34  1  0  0  0  0
  9  8  1  0  0  0  0
 10 11  3  0  0  0  0
 12 19  2  0  0  0  0
 13 14  2  0  0  0  0
 13 12  1  0  0  0  0
 14 15  1  0  0  0  0
 15 16  1  0  0  0  0
 15 18  2  0  0  0  0
 17 39  1  0  0  0  0
 17 16  1  0  0  0  0
 17 38  1  0  0  0  0
 18 19  1  0  0  0  0
 18 20  1  0  0  0  0
 19 41  1  0  0  0  0
 21 25  1  0  0  0  0
 21 20  1  0  0  0  0
 22 43  1  0  0  0  0
 22 21  1  0  0  0  0
 23 22  1  0  0  0  0
 23 24  1  0  0  0  0
 24 47  1  0  0  0  0
 24 25  1  0  0  0  0
 25 49  1  0  0  0  0
 29  5  1  0  0  0  0
 30  6  1  0  0  0  0
 31  6  1  0  0  0  0
 35  9  1  0  0  0  0
 36 13  1  0  0  0  0
 37 14  1  0  0  0  0
 40 17  1  0  0  0  0
 42 21  1  0  0  0  0
 44 22  1  0  0  0  0
 45 23  1  0  0  0  0
 46 23  1  0  0  0  0
 48 24  1  0  0  0  0
 50 25  1  0  0  0  0
M  END
