73.5186
 OpenBabel10231816213D

 50 52  0  0  1  0  0  0  0  0999 V2000
    6.2670    2.5523   -0.8423 O   0  0  0  0  0  0  0  0  0  0  0  0
    6.0548    1.2880   -0.4075 C   0  0  0  0  0  0  0  0  0  0  0  0
    6.9451    0.6323    0.0833 O   0  0  0  0  0  0  0  0  0  0  0  0
    4.6314    0.8003   -0.6258 C   0  0  1  0  0  0  0  0  0  0  0  0
    4.5489   -0.7324   -0.5593 C   0  0  0  0  0  0  0  0  0  0  0  0
    3.0919   -1.2054   -0.7125 C   0  0  0  0  0  0  0  0  0  0  0  0
    2.1354   -0.5820    0.3437 C   0  0  2  0  0  0  0  0  0  0  0  0
    2.2805    0.9559    0.2453 C   0  0  0  0  0  0  0  0  0  0  0  0
    3.7234    1.4167    0.4337 C   0  0  0  0  0  0  0  0  0  0  0  0
    2.5451   -1.0118    1.7062 C   0  0  0  0  0  0  0  0  0  0  0  0
    2.8857   -1.3524    2.7611 N   0  0  0  0  0  0  0  0  0  0  0  0
    0.6980   -1.0576    0.0862 C   0  0  0  0  0  0  0  0  0  0  0  0
    0.3832   -2.4107    0.2934 C   0  0  0  0  0  0  0  0  0  0  0  0
   -0.9075   -2.8931    0.0733 C   0  0  0  0  0  0  0  0  0  0  0  0
   -1.9160   -2.0277   -0.3516 C   0  0  0  0  0  0  0  0  0  0  0  0
   -3.1989   -2.3917   -0.6316 O   0  0  0  0  0  0  0  0  0  0  0  0
   -3.5497   -3.7473   -0.4253 C   0  0  0  0  0  0  0  0  0  0  0  0
   -1.6223   -0.6730   -0.5221 C   0  0  0  0  0  0  0  0  0  0  0  0
   -0.3278   -0.1952   -0.3219 C   0  0  0  0  0  0  0  0  0  0  0  0
   -2.5439    0.2194   -1.0061 O   0  0  0  0  0  0  0  0  0  0  0  0
   -3.5427    0.6130   -0.0540 C   0  0  0  0  0  0  0  0  0  0  0  0
   -4.6076    1.4301   -0.8099 C   0  0  0  0  0  0  0  0  0  0  0  0
   -4.9072    2.6742    0.0372 C   0  0  0  0  0  0  0  0  0  0  0  0
   -4.2245    2.4229    1.3765 C   0  0  0  0  0  0  0  0  0  0  0  0
   -3.0088    1.5863    1.0010 C   0  0  0  0  0  0  0  0  0  0  0  0
    5.4809    2.9694   -1.2472 H   0  0  0  0  0  0  0  0  0  0  0  0
    4.3104    1.1103   -1.6240 H   0  0  0  0  0  0  0  0  0  0  0  0
    4.9569   -1.0914    0.3956 H   0  0  0  0  0  0  0  0  0  0  0  0
    5.1722   -1.1848   -1.3417 H   0  0  0  0  0  0  0  0  0  0  0  0
    2.7477   -0.9276   -1.7241 H   0  0  0  0  0  0  0  0  0  0  0  0
    3.0664   -2.3048   -0.6780 H   0  0  0  0  0  0  0  0  0  0  0  0
    1.9435    1.2928   -0.7482 H   0  0  0  0  0  0  0  0  0  0  0  0
    1.6410    1.4450    0.9870 H   0  0  0  0  0  0  0  0  0  0  0  0
    3.7702    2.5107    0.3884 H   0  0  0  0  0  0  0  0  0  0  0  0
    4.0705    1.1365    1.4360 H   0  0  0  0  0  0  0  0  0  0  0  0
    1.1477   -3.1062    0.6411 H   0  0  0  0  0  0  0  0  0  0  0  0
   -1.0905   -3.9504    0.2369 H   0  0  0  0  0  0  0  0  0  0  0  0
   -3.4148   -4.0384    0.6216 H   0  0  0  0  0  0  0  0  0  0  0  0
   -2.9811   -4.4076   -1.0873 H   0  0  0  0  0  0  0  0  0  0  0  0
   -4.6090   -3.8327   -0.6746 H   0  0  0  0  0  0  0  0  0  0  0  0
   -0.1586    0.8652   -0.4852 H   0  0  0  0  0  0  0  0  0  0  0  0
   -4.0196   -0.2497    0.4279 H   0  0  0  0  0  0  0  0  0  0  0  0
   -5.5128    0.8315   -0.9698 H   0  0  0  0  0  0  0  0  0  0  0  0
   -4.2433    1.7121   -1.8048 H   0  0  0  0  0  0  0  0  0  0  0  0
   -5.9813    2.8632    0.1479 H   0  0  0  0  0  0  0  0  0  0  0  0
   -4.4809    3.5644   -0.4438 H   0  0  0  0  0  0  0  0  0  0  0  0
   -3.9583    3.3499    1.8969 H   0  0  0  0  0  0  0  0  0  0  0  0
   -4.8894    1.8543    2.0370 H   0  0  0  0  0  0  0  0  0  0  0  0
   -2.5831    1.0611    1.8639 H   0  0  0  0  0  0  0  0  0  0  0  0
   -2.2178    2.2156    0.5774 H   0  0  0  0  0  0  0  0  0  0  0  0
  1  2  1  0  0  0  0
  2  3  2  0  0  0  0
  4 27  1  6  0  0  0
  4  5  1  0  0  0  0
  4  2  1  0  0  0  0
  4  9  1  0  0  0  0
  5 28  1  0  0  0  0
  6 31  1  0  0  0  0
  6  5  1  0  0  0  0
  6  7  1  0  0  0  0
  7 12  1  6  0  0  0
  7 10  1  0  0  0  0
  8  7  1  0  0  0  0
  8  9  1  0  0  0  0
  8 33  1  0  0  0  0
  9 35  1  0  0  0  0
 10 11  3  0  0  0  0
 12 13  1  0  0  0  0
 13 36  1  0  0  0  0
 14 37  1  0  0  0  0
 14 13  2  0  0  0  0
 15 14  1  0  0  0  0
 16 17  1  0  0  0  0
 16 15  1  0  0  0  0
 17 38  1  0  0  0  0
 18 15  2  0  0  0  0
 18 19  1  0  0  0  0
 19 12  2  0  0  0  0
 20 18  1  0  0  0  0
 20 21  1  0  0  0  0
 21 42  1  0  0  0  0
 21 25  1  0  0  0  0
 22 21  1  0  0  0  0
 22 23  1  0  0  0  0
 23 45  1  0  0  0  0
 23 24  1  0  0  0  0
 24 47  1  0  0  0  0
 24 48  1  0  0  0  0
 25 24  1  0  0  0  0
 25 49  1  0  0  0  0
 26  1  1  0  0  0  0
 29  5  1  0  0  0  0
 30  6  1  0  0  0  0
 32  8  1  0  0  0  0
 34  9  1  0  0  0  0
 39 17  1  0  0  0  0
 40 17  1  0  0  0  0
 41 19  1  0  0  0  0
 43 22  1  0  0  0  0
 44 22  1  0  0  0  0
 46 23  1  0  0  0  0
 50 25  1  0  0  0  0
M  END
