50.4025
 OpenBabel10231816213D

 40 42  0  0  0  0  0  0  0  0999 V2000
    5.5949    3.3164    1.7557 O   0  0  0  0  0  0  0  0  0  0  0  0
    5.5247    2.1091    2.0293 C   0  0  0  0  0  0  0  0  0  0  0  0
    6.5785    1.4388    2.8666 C   0  0  0  0  0  0  0  0  0  0  0  0
    4.3837    1.2927    1.5281 C   0  0  0  0  0  0  0  0  0  0  0  0
    3.4048    1.9208    0.7499 C   0  0  0  0  0  0  0  0  0  0  0  0
    2.3132    1.1972    0.2565 C   0  0  0  0  0  0  0  0  0  0  0  0
    2.1879   -0.1602    0.5330 C   0  0  0  0  0  0  0  0  0  0  0  0
    3.1660   -0.7908    1.3106 C   0  0  0  0  0  0  0  0  0  0  0  0
    4.2578   -0.0712    1.8071 C   0  0  0  0  0  0  0  0  0  0  0  0
    1.1226   -0.9644    0.0714 N   0  0  0  0  0  0  0  0  0  0  0  0
    0.0227   -0.5629   -0.6658 C   0  0  0  0  0  0  0  0  0  0  0  0
   -0.1812    0.5992   -0.9954 O   0  0  0  0  0  0  0  0  0  0  0  0
   -0.8891   -1.6591   -1.0290 C   0  0  0  0  0  0  0  0  0  0  0  0
   -0.4998   -2.9996   -1.3077 C   0  0  0  0  0  0  0  0  0  0  0  0
   -1.5206   -3.7985   -1.6140 N   0  0  0  0  0  0  0  0  0  0  0  0
   -2.5791   -2.9818   -1.5279 N   0  0  0  0  0  0  0  0  0  0  0  0
   -2.2745   -1.6642   -1.2293 C   0  0  0  0  0  0  0  0  0  0  0  0
   -3.3505   -0.6503   -1.1938 C   0  0  0  0  0  0  0  0  0  0  0  0
   -3.0875    0.6978   -1.4758 C   0  0  0  0  0  0  0  0  0  0  0  0
   -4.1070    1.6556   -1.4887 C   0  0  0  0  0  0  0  0  0  0  0  0
   -3.7404    3.3038   -1.8417 Cl  0  0  0  0  0  0  0  0  0  0  0  0
   -5.4151    1.2712   -1.2156 C   0  0  0  0  0  0  0  0  0  0  0  0
   -6.4618    2.1540   -1.2047 O   0  0  0  0  0  0  0  0  0  0  0  0
   -5.7155   -0.0560   -0.9382 C   0  0  0  0  0  0  0  0  0  0  0  0
   -4.6896   -1.0028   -0.9329 C   0  0  0  0  0  0  0  0  0  0  0  0
   -4.9945   -2.3152   -0.6672 O   0  0  0  0  0  0  0  0  0  0  0  0
    6.1395    1.0277    3.7797 H   0  0  0  0  0  0  0  0  0  0  0  0
    7.0664    0.6395    2.3023 H   0  0  0  0  0  0  0  0  0  0  0  0
    7.3346    2.1795    3.1463 H   0  0  0  0  0  0  0  0  0  0  0  0
    3.5041    2.9836    0.5334 H   0  0  0  0  0  0  0  0  0  0  0  0
    1.5679    1.7115   -0.3432 H   0  0  0  0  0  0  0  0  0  0  0  0
    3.0908   -1.8522    1.5392 H   0  0  0  0  0  0  0  0  0  0  0  0
    4.9936   -0.5973    2.4061 H   0  0  0  0  0  0  0  0  0  0  0  0
    1.1478   -1.9216    0.3772 H   0  0  0  0  0  0  0  0  0  0  0  0
    0.4951   -3.4258   -1.3222 H   0  0  0  0  0  0  0  0  0  0  0  0
   -3.5072   -3.3802   -1.6750 H   0  0  0  0  0  0  0  0  0  0  0  0
   -2.0858    1.0264   -1.7057 H   0  0  0  0  0  0  0  0  0  0  0  0
   -6.1079    3.0398   -1.4149 H   0  0  0  0  0  0  0  0  0  0  0  0
   -6.7447   -0.3260   -0.7305 H   0  0  0  0  0  0  0  0  0  0  0  0
   -5.9452   -2.3846   -0.4732 H   0  0  0  0  0  0  0  0  0  0  0  0
  1  2  2  0  0  0  0
  2  3  1  0  0  0  0
  3 29  1  0  0  0  0
  3 27  1  0  0  0  0
  4  9  1  0  0  0  0
  4  2  1  0  0  0  0
  5  4  2  0  0  0  0
  6  7  2  0  0  0  0
  6  5  1  0  0  0  0
  7  8  1  0  0  0  0
  8 32  1  0  0  0  0
  8  9  2  0  0  0  0
  9 33  1  0  0  0  0
 10 34  1  0  0  0  0
 10  7  1  0  0  0  0
 11 10  1  0  0  0  0
 12 11  2  0  0  0  0
 13 11  1  0  0  0  0
 14 13  1  0  0  0  0
 15 16  1  0  0  0  0
 15 14  2  0  0  0  0
 16 17  1  0  0  0  0
 17 18  1  0  0  0  0
 17 13  2  0  0  0  0
 18 25  2  0  0  0  0
 19 18  1  0  0  0  0
 20 19  2  0  0  0  0
 20 22  1  0  0  0  0
 21 20  1  0  0  0  0
 22 23  1  0  0  0  0
 22 24  2  0  0  0  0
 24 25  1  0  0  0  0
 24 39  1  0  0  0  0
 25 26  1  0  0  0  0
 26 40  1  0  0  0  0
 28  3  1  0  0  0  0
 30  5  1  0  0  0  0
 31  6  1  0  0  0  0
 35 14  1  0  0  0  0
 36 16  1  0  0  0  0
 37 19  1  0  0  0  0
 38 23  1  0  0  0  0
M  END
