50.3904
 OpenBabel10231816213D

 40 42  0  0  0  0  0  0  0  0999 V2000
    5.7319    3.2083    1.4969 O   0  0  0  0  0  0  0  0  0  0  0  0
    5.5582    2.0756    1.9704 C   0  0  0  0  0  0  0  0  0  0  0  0
    6.5150    1.4978    2.9761 C   0  0  0  0  0  0  0  0  0  0  0  0
    4.3866    1.2585    1.5469 C   0  0  0  0  0  0  0  0  0  0  0  0
    4.1455   -0.0235    2.0492 C   0  0  0  0  0  0  0  0  0  0  0  0
    3.0302   -0.7481    1.6163 C   0  0  0  0  0  0  0  0  0  0  0  0
    2.1429   -0.2036    0.6808 C   0  0  0  0  0  0  0  0  0  0  0  0
    2.3825    1.0726    0.1824 C   0  0  0  0  0  0  0  0  0  0  0  0
    3.4982    1.8005    0.6113 C   0  0  0  0  0  0  0  0  0  0  0  0
    1.0458   -1.0066    0.2986 N   0  0  0  0  0  0  0  0  0  0  0  0
    0.0152   -0.6704   -0.5611 C   0  0  0  0  0  0  0  0  0  0  0  0
   -0.0882    0.4280   -1.0938 O   0  0  0  0  0  0  0  0  0  0  0  0
   -0.9549   -1.7531   -0.7877 C   0  0  0  0  0  0  0  0  0  0  0  0
   -0.6506   -3.1434   -0.8123 C   0  0  0  0  0  0  0  0  0  0  0  0
   -1.7105   -3.9173   -1.0401 N   0  0  0  0  0  0  0  0  0  0  0  0
   -2.7101   -3.0330   -1.1563 N   0  0  0  0  0  0  0  0  0  0  0  0
   -2.3258   -1.7054   -1.0666 C   0  0  0  0  0  0  0  0  0  0  0  0
   -3.3264   -0.6348   -1.2662 C   0  0  0  0  0  0  0  0  0  0  0  0
   -2.9539    0.6255   -1.7551 C   0  0  0  0  0  0  0  0  0  0  0  0
   -3.8999    1.6290   -1.9889 C   0  0  0  0  0  0  0  0  0  0  0  0
   -3.3992    3.1656   -2.5921 Cl  0  0  0  0  0  0  0  0  0  0  0  0
   -5.2437    1.3805   -1.7324 C   0  0  0  0  0  0  0  0  0  0  0  0
   -6.2235    2.3161   -1.9317 O   0  0  0  0  0  0  0  0  0  0  0  0
   -5.6518    0.1424   -1.2538 C   0  0  0  0  0  0  0  0  0  0  0  0
   -4.6982   -0.8522   -1.0291 C   0  0  0  0  0  0  0  0  0  0  0  0
   -5.1092   -2.0775   -0.5649 O   0  0  0  0  0  0  0  0  0  0  0  0
    6.9699    0.5812    2.5909 H   0  0  0  0  0  0  0  0  0  0  0  0
    6.0006    1.2846    3.9170 H   0  0  0  0  0  0  0  0  0  0  0  0
    7.3092    2.2259    3.1703 H   0  0  0  0  0  0  0  0  0  0  0  0
    4.8083   -0.4813    2.7759 H   0  0  0  0  0  0  0  0  0  0  0  0
    2.8645   -1.7450    2.0200 H   0  0  0  0  0  0  0  0  0  0  0  0
    1.7091    1.5194   -0.5433 H   0  0  0  0  0  0  0  0  0  0  0  0
    3.6871    2.7996    0.2211 H   0  0  0  0  0  0  0  0  0  0  0  0
    0.9866   -1.8963    0.7629 H   0  0  0  0  0  0  0  0  0  0  0  0
    0.3106   -3.6275   -0.6951 H   0  0  0  0  0  0  0  0  0  0  0  0
   -3.6564   -3.3915   -1.2893 H   0  0  0  0  0  0  0  0  0  0  0  0
   -1.9213    0.8458   -1.9776 H   0  0  0  0  0  0  0  0  0  0  0  0
   -5.7973    3.1286   -2.2666 H   0  0  0  0  0  0  0  0  0  0  0  0
   -6.7064   -0.0226   -1.0645 H   0  0  0  0  0  0  0  0  0  0  0  0
   -6.0706   -2.0526   -0.4185 H   0  0  0  0  0  0  0  0  0  0  0  0
  1  2  2  0  0  0  0
  2  3  1  0  0  0  0
  3 29  1  0  0  0  0
  3 28  1  0  0  0  0
  4  2  1  0  0  0  0
  4  5  2  0  0  0  0
  5 30  1  0  0  0  0
  6 31  1  0  0  0  0
  6  5  1  0  0  0  0
  7  6  2  0  0  0  0
  8  9  2  0  0  0  0
  8  7  1  0  0  0  0
  9  4  1  0  0  0  0
 10  7  1  0  0  0  0
 10 34  1  0  0  0  0
 11 10  1  0  0  0  0
 12 11  2  0  0  0  0
 13 11  1  0  0  0  0
 14 13  1  0  0  0  0
 14 35  1  0  0  0  0
 15 14  2  0  0  0  0
 16 17  1  0  0  0  0
 16 15  1  0  0  0  0
 17 13  2  0  0  0  0
 18 17  1  0  0  0  0
 18 25  2  0  0  0  0
 19 18  1  0  0  0  0
 20 19  2  0  0  0  0
 20 22  1  0  0  0  0
 21 20  1  0  0  0  0
 22 24  2  0  0  0  0
 23 22  1  0  0  0  0
 24 39  1  0  0  0  0
 24 25  1  0  0  0  0
 25 26  1  0  0  0  0
 26 40  1  0  0  0  0
 27  3  1  0  0  0  0
 32  8  1  0  0  0  0
 33  9  1  0  0  0  0
 36 16  1  0  0  0  0
 37 19  1  0  0  0  0
 38 23  1  0  0  0  0
M  END
