-44.9383
 OpenBabel10231816213D

 24 23  0  0  1  0  0  0  0  0999 V2000
   -0.2792   -0.9491   -0.5584 C   0  0  2  0  0  0  0  0  0  0  0  0
   -0.8753   -1.3792    0.7747 C   0  0  0  0  0  0  0  0  0  0  0  0
   -1.0918   -0.6634    1.7437 O   0  0  0  0  0  0  0  0  0  0  0  0
   -1.0255   -2.7248    0.8517 O   0  0  0  0  0  0  0  0  0  0  0  0
    1.2420   -1.1643   -0.5737 C   0  0  0  0  0  0  0  0  0  0  0  0
    2.0083   -0.7597    0.6954 C   0  0  0  0  0  0  0  0  0  0  0  0
    2.1046    0.7249    0.9276 C   0  0  0  0  0  0  0  0  0  0  0  0
    1.7000    1.6114    0.1940 O   0  0  0  0  0  0  0  0  0  0  0  0
    2.7384    0.9998    2.0840 O   0  0  0  0  0  0  0  0  0  0  0  0
   -0.6443    0.4289   -0.8457 N   0  0  0  0  0  0  0  0  0  0  0  0
   -1.9536    0.7273   -1.1219 C   0  0  0  0  0  0  0  0  0  0  0  0
   -2.8133   -0.1434   -1.2654 O   0  0  0  0  0  0  0  0  0  0  0  0
   -2.2908    2.1886   -1.2087 C   0  0  0  0  0  0  0  0  0  0  0  0
   -0.7425   -1.5711   -1.3354 H   0  0  0  0  0  0  0  0  0  0  0  0
   -1.3791   -2.8855    1.7484 H   0  0  0  0  0  0  0  0  0  0  0  0
    1.4158   -2.2355   -0.7286 H   0  0  0  0  0  0  0  0  0  0  0  0
    1.6606   -0.6433   -1.4432 H   0  0  0  0  0  0  0  0  0  0  0  0
    1.5677   -1.2220    1.5843 H   0  0  0  0  0  0  0  0  0  0  0  0
    3.0366   -1.1309    0.6116 H   0  0  0  0  0  0  0  0  0  0  0  0
    2.7716    1.9760    2.1519 H   0  0  0  0  0  0  0  0  0  0  0  0
    0.0095    1.1689   -0.5833 H   0  0  0  0  0  0  0  0  0  0  0  0
   -2.7519    2.3861   -2.1822 H   0  0  0  0  0  0  0  0  0  0  0  0
   -3.0025    2.4418   -0.4187 H   0  0  0  0  0  0  0  0  0  0  0  0
   -1.4055    2.8186   -1.1020 H   0  0  0  0  0  0  0  0  0  0  0  0
  1 14  1  6  0  0  0
  1  2  1  0  0  0  0
  2  4  1  0  0  0  0
  2  3  2  0  0  0  0
  4 15  1  0  0  0  0
  5  1  1  0  0  0  0
  5  6  1  0  0  0  0
  6  7  1  0  0  0  0
  6 18  1  0  0  0  0
  7  9  1  0  0  0  0
  8  7  2  0  0  0  0
  9 20  1  0  0  0  0
 10 21  1  0  0  0  0
 10  1  1  0  0  0  0
 11 10  1  0  0  0  0
 12 11  2  0  0  0  0
 13 11  1  0  0  0  0
 13 24  1  0  0  0  0
 13 23  1  0  0  0  0
 16  5  1  0  0  0  0
 17  5  1  0  0  0  0
 19  6  1  0  0  0  0
 22 13  1  0  0  0  0
M  END
