43.5173
 OpenBabel10231816213D

 36 36  0  0  1  0  0  0  0  0999 V2000
    5.1526    0.7536   -0.0147 C   0  0  0  0  0  0  0  0  0  0  0  0
    4.1566    1.5247   -0.8299 C   0  0  0  0  0  0  0  0  0  0  0  0
    3.7973    1.0682    0.5501 C   0  0  0  0  0  0  0  0  0  0  0  0
    2.8625   -0.0165    0.7718 N   0  0  0  0  0  0  0  0  0  0  0  0
    1.5236    0.2286    0.1937 C   0  0  0  0  0  0  0  0  0  0  0  0
    0.6544   -0.9689    0.6214 C   0  0  0  0  0  0  0  0  0  0  0  0
   -0.8145   -0.9348    0.1041 C   0  0  1  0  0  0  0  0  0  0  0  0
   -1.4140   -2.2235    0.5289 N   0  0  0  0  0  0  0  0  0  0  0  0
   -1.5874    0.2950    0.6272 C   0  0  0  0  0  0  0  0  0  0  0  0
   -3.0865    0.3333    0.2999 C   0  0  0  0  0  0  0  0  0  0  0  0
   -3.3890    0.3849   -1.1997 C   0  0  0  0  0  0  0  0  0  0  0  0
   -4.8878    0.4551   -1.4646 C   0  0  0  0  0  0  0  0  0  0  0  0
    0.6506   -1.0619    2.0476 O   0  0  0  0  0  0  0  0  0  0  0  0
    1.2666   -2.1695    0.1413 O   0  0  0  0  0  0  0  0  0  0  0  0
    5.9968    1.2830    0.4104 H   0  0  0  0  0  0  0  0  0  0  0  0
    5.3752   -0.2637   -0.3146 H   0  0  0  0  0  0  0  0  0  0  0  0
    3.7102    1.0295   -1.6850 H   0  0  0  0  0  0  0  0  0  0  0  0
    4.3124    2.5886   -0.9701 H   0  0  0  0  0  0  0  0  0  0  0  0
    3.7632    1.8315    1.3235 H   0  0  0  0  0  0  0  0  0  0  0  0
    3.1833   -0.9214    0.4084 H   0  0  0  0  0  0  0  0  0  0  0  0
    1.5830    0.2880   -0.9016 H   0  0  0  0  0  0  0  0  0  0  0  0
    1.1287    1.1631    0.5978 H   0  0  0  0  0  0  0  0  0  0  0  0
   -0.7980   -0.9288   -0.9910 H   0  0  0  0  0  0  0  0  0  0  0  0
   -1.4696   -2.2051    1.5517 H   0  0  0  0  0  0  0  0  0  0  0  0
   -2.3688   -2.3052    0.1771 H   0  0  0  0  0  0  0  0  0  0  0  0
   -1.4812    0.3686    1.7175 H   0  0  0  0  0  0  0  0  0  0  0  0
   -1.1281    1.2042    0.2189 H   0  0  0  0  0  0  0  0  0  0  0  0
   -3.5162    1.2193    0.7793 H   0  0  0  0  0  0  0  0  0  0  0  0
   -3.5841   -0.5329    0.7514 H   0  0  0  0  0  0  0  0  0  0  0  0
   -2.9038    1.2609   -1.6456 H   0  0  0  0  0  0  0  0  0  0  0  0
   -2.9850   -0.5003   -1.7016 H   0  0  0  0  0  0  0  0  0  0  0  0
   -5.0853    0.4859   -2.5412 H   0  0  0  0  0  0  0  0  0  0  0  0
   -5.3277    1.3519   -1.0165 H   0  0  0  0  0  0  0  0  0  0  0  0
   -5.4023   -0.4197   -1.0536 H   0  0  0  0  0  0  0  0  0  0  0  0
    1.5769   -0.8485    2.2774 H   0  0  0  0  0  0  0  0  0  0  0  0
    0.5351   -2.8171    0.2304 H   0  0  0  0  0  0  0  0  0  0  0  0
  1 15  1  0  0  0  0
  1  3  1  0  0  0  0
  2  1  1  0  0  0  0
  2  3  1  0  0  0  0
  3  4  1  0  0  0  0
  3 19  1  0  0  0  0
  5 22  1  0  0  0  0
  5  6  1  0  0  0  0
  5  4  1  0  0  0  0
  6 13  1  0  0  0  0
  7 23  1  6  0  0  0
  7  8  1  0  0  0  0
  7  6  1  0  0  0  0
  7  9  1  0  0  0  0
  8 24  1  0  0  0  0
  9 26  1  0  0  0  0
 10  9  1  0  0  0  0
 10 29  1  0  0  0  0
 10 28  1  0  0  0  0
 11 10  1  0  0  0  0
 12 11  1  0  0  0  0
 12 34  1  0  0  0  0
 12 33  1  0  0  0  0
 13 35  1  0  0  0  0
 14 36  1  0  0  0  0
 14  6  1  0  0  0  0
 16  1  1  0  0  0  0
 17  2  1  0  0  0  0
 18  2  1  0  0  0  0
 20  4  1  0  0  0  0
 21  5  1  0  0  0  0
 25  8  1  0  0  0  0
 27  9  1  0  0  0  0
 30 11  1  0  0  0  0
 31 11  1  0  0  0  0
 32 12  1  0  0  0  0
M  END
