43.0009
 OpenBabel10231816213D

 36 36  0  0  1  0  0  0  0  0999 V2000
    4.2566    1.5304   -0.6455 C   0  0  0  0  0  0  0  0  0  0  0  0
    5.1677    0.9064    0.3709 C   0  0  0  0  0  0  0  0  0  0  0  0
    3.7245    1.1591    0.7058 C   0  0  0  0  0  0  0  0  0  0  0  0
    2.8409    0.0263    0.8883 N   0  0  0  0  0  0  0  0  0  0  0  0
    1.5913    0.1109    0.1058 C   0  0  0  0  0  0  0  0  0  0  0  0
    0.7385   -1.1083    0.5153 C   0  0  0  0  0  0  0  0  0  0  0  0
   -0.6224   -1.2281   -0.2114 C   0  0  1  0  0  0  0  0  0  0  0  0
   -1.1842   -2.5337    0.2294 N   0  0  0  0  0  0  0  0  0  0  0  0
   -1.5630   -0.0384    0.0843 C   0  0  0  0  0  0  0  0  0  0  0  0
   -2.9254   -0.1448   -0.6129 C   0  0  0  0  0  0  0  0  0  0  0  0
   -3.7901    1.0956   -0.3642 C   0  0  0  0  0  0  0  0  0  0  0  0
   -5.1657    0.9707   -1.0083 C   0  0  0  0  0  0  0  0  0  0  0  0
    0.5281   -1.0847    1.9261 O   0  0  0  0  0  0  0  0  0  0  0  0
    1.5029   -2.2926    0.2454 O   0  0  0  0  0  0  0  0  0  0  0  0
    3.9725    0.9347   -1.5044 H   0  0  0  0  0  0  0  0  0  0  0  0
    4.3594    2.5890   -0.8543 H   0  0  0  0  0  0  0  0  0  0  0  0
    5.4937   -0.1138    0.2003 H   0  0  0  0  0  0  0  0  0  0  0  0
    5.9030    1.5294    0.8650 H   0  0  0  0  0  0  0  0  0  0  0  0
    3.5290    1.9755    1.3962 H   0  0  0  0  0  0  0  0  0  0  0  0
    3.2720   -0.8793    0.6682 H   0  0  0  0  0  0  0  0  0  0  0  0
    1.0797    1.0477    0.3454 H   0  0  0  0  0  0  0  0  0  0  0  0
    1.8044    0.0753   -0.9700 H   0  0  0  0  0  0  0  0  0  0  0  0
   -0.4496   -1.3009   -1.2907 H   0  0  0  0  0  0  0  0  0  0  0  0
   -2.0387   -2.7462   -0.2724 H   0  0  0  0  0  0  0  0  0  0  0  0
   -1.4228   -2.4371    1.2237 H   0  0  0  0  0  0  0  0  0  0  0  0
   -1.0797    0.8870   -0.2520 H   0  0  0  0  0  0  0  0  0  0  0  0
   -1.7167    0.0673    1.1656 H   0  0  0  0  0  0  0  0  0  0  0  0
   -2.7740   -0.2741   -1.6912 H   0  0  0  0  0  0  0  0  0  0  0  0
   -3.4584   -1.0287   -0.2466 H   0  0  0  0  0  0  0  0  0  0  0  0
   -3.9140    1.2508    0.7137 H   0  0  0  0  0  0  0  0  0  0  0  0
   -3.2887    1.9861   -0.7623 H   0  0  0  0  0  0  0  0  0  0  0  0
   -5.7646    1.8656   -0.8086 H   0  0  0  0  0  0  0  0  0  0  0  0
   -5.7103    0.1079   -0.6113 H   0  0  0  0  0  0  0  0  0  0  0  0
   -5.0859    0.8553   -2.0940 H   0  0  0  0  0  0  0  0  0  0  0  0
    1.3860   -0.7731    2.2673 H   0  0  0  0  0  0  0  0  0  0  0  0
    0.8039   -2.9872    0.2835 H   0  0  0  0  0  0  0  0  0  0  0  0
  1  2  1  0  0  0  0
  1  3  1  0  0  0  0
  2  3  1  0  0  0  0
  2 18  1  0  0  0  0
  3  4  1  0  0  0  0
  3 19  1  0  0  0  0
  5 21  1  0  0  0  0
  5  6  1  0  0  0  0
  5  4  1  0  0  0  0
  6 13  1  0  0  0  0
  7 23  1  6  0  0  0
  7  9  1  0  0  0  0
  7  8  1  0  0  0  0
  7  6  1  0  0  0  0
  8 25  1  0  0  0  0
  9 27  1  0  0  0  0
 10 11  1  0  0  0  0
 10 29  1  0  0  0  0
 10  9  1  0  0  0  0
 11 30  1  0  0  0  0
 12 32  1  0  0  0  0
 12 33  1  0  0  0  0
 12 11  1  0  0  0  0
 13 35  1  0  0  0  0
 14 36  1  0  0  0  0
 14  6  1  0  0  0  0
 15  1  1  0  0  0  0
 16  1  1  0  0  0  0
 17  2  1  0  0  0  0
 20  4  1  0  0  0  0
 22  5  1  0  0  0  0
 24  8  1  0  0  0  0
 26  9  1  0  0  0  0
 28 10  1  0  0  0  0
 31 11  1  0  0  0  0
 34 12  1  0  0  0  0
M  END
