53.9002
 OpenBabel10231816213D

 40 42  0  0  0  0  0  0  0  0999 V2000
    6.8540    0.7936    2.0245 O   0  0  0  0  0  0  0  0  0  0  0  0
    5.7574    1.3684    2.1178 C   0  0  0  0  0  0  0  0  0  0  0  0
    5.6346    2.7112    2.7812 C   0  0  0  0  0  0  0  0  0  0  0  0
    4.5310    0.7235    1.5650 C   0  0  0  0  0  0  0  0  0  0  0  0
    3.2706    1.3223    1.6418 C   0  0  0  0  0  0  0  0  0  0  0  0
    2.1491    0.6770    1.1059 C   0  0  0  0  0  0  0  0  0  0  0  0
    2.2713   -0.5665    0.4928 C   0  0  0  0  0  0  0  0  0  0  0  0
    3.5332   -1.1679    0.4167 C   0  0  0  0  0  0  0  0  0  0  0  0
    4.6558   -0.5250    0.9491 C   0  0  0  0  0  0  0  0  0  0  0  0
    1.1839   -1.2740   -0.0560 N   0  0  0  0  0  0  0  0  0  0  0  0
   -0.1323   -0.8642   -0.1365 C   0  0  0  0  0  0  0  0  0  0  0  0
   -0.5355    0.2453    0.2107 O   0  0  0  0  0  0  0  0  0  0  0  0
   -1.0556   -1.8567   -0.7112 C   0  0  0  0  0  0  0  0  0  0  0  0
   -0.8256   -3.2398   -0.9611 C   0  0  0  0  0  0  0  0  0  0  0  0
   -1.8761   -3.8593   -1.5015 N   0  0  0  0  0  0  0  0  0  0  0  0
   -2.7952   -2.8899   -1.5991 N   0  0  0  0  0  0  0  0  0  0  0  0
   -2.3823   -1.6631   -1.1173 C   0  0  0  0  0  0  0  0  0  0  0  0
   -3.2702   -0.4887   -1.1819 C   0  0  0  0  0  0  0  0  0  0  0  0
   -2.7954    0.7329   -1.6902 C   0  0  0  0  0  0  0  0  0  0  0  0
   -3.6548    1.8174   -1.8947 C   0  0  0  0  0  0  0  0  0  0  0  0
   -3.0251    3.2929   -2.5390 Cl  0  0  0  0  0  0  0  0  0  0  0  0
   -5.0064    1.7005   -1.5927 C   0  0  0  0  0  0  0  0  0  0  0  0
   -5.8365    2.7626   -1.8287 O   0  0  0  0  0  0  0  0  0  0  0  0
   -5.4985    0.5148   -1.0489 C   0  0  0  0  0  0  0  0  0  0  0  0
   -4.6293   -0.5575   -0.8293 C   0  0  0  0  0  0  0  0  0  0  0  0
   -5.2070   -1.6674   -0.2673 O   0  0  0  0  0  0  0  0  0  0  0  0
    6.6253    3.0282    3.1245 H   0  0  0  0  0  0  0  0  0  0  0  0
    5.2575    3.4564    2.0758 H   0  0  0  0  0  0  0  0  0  0  0  0
    4.9698    2.6543    3.6472 H   0  0  0  0  0  0  0  0  0  0  0  0
    3.1320    2.2913    2.1120 H   0  0  0  0  0  0  0  0  0  0  0  0
    1.1818    1.1657    1.1774 H   0  0  0  0  0  0  0  0  0  0  0  0
    3.6582   -2.1398   -0.0557 H   0  0  0  0  0  0  0  0  0  0  0  0
    5.6378   -0.9918    0.8890 H   0  0  0  0  0  0  0  0  0  0  0  0
    1.4269   -2.1543   -0.4787 H   0  0  0  0  0  0  0  0  0  0  0  0
    0.0577   -3.8414   -0.7770 H   0  0  0  0  0  0  0  0  0  0  0  0
   -3.6941   -3.1300   -2.0131 H   0  0  0  0  0  0  0  0  0  0  0  0
   -1.7436    0.8587   -1.9318 H   0  0  0  0  0  0  0  0  0  0  0  0
   -6.7435    2.5316   -1.5740 H   0  0  0  0  0  0  0  0  0  0  0  0
   -6.5434    0.3944   -0.7803 H   0  0  0  0  0  0  0  0  0  0  0  0
   -4.5375   -2.1654    0.2348 H   0  0  0  0  0  0  0  0  0  0  0  0
  1  2  2  0  0  0  0
  2  3  1  0  0  0  0
  3 27  1  0  0  0  0
  3 29  1  0  0  0  0
  4  5  1  0  0  0  0
  4  2  1  0  0  0  0
  5 30  1  0  0  0  0
  6 31  1  0  0  0  0
  6  5  2  0  0  0  0
  7  6  1  0  0  0  0
  8  7  2  0  0  0  0
  8  9  1  0  0  0  0
  9  4  2  0  0  0  0
 10  7  1  0  0  0  0
 11 10  1  0  0  0  0
 11 12  2  0  0  0  0
 13 11  1  0  0  0  0
 14 35  1  0  0  0  0
 14 13  1  0  0  0  0
 15 14  2  0  0  0  0
 16 15  1  0  0  0  0
 16 17  1  0  0  0  0
 17 13  2  0  0  0  0
 18 17  1  0  0  0  0
 18 25  2  0  0  0  0
 19 18  1  0  0  0  0
 20 19  2  0  0  0  0
 20 22  1  0  0  0  0
 21 20  1  0  0  0  0
 22 24  2  0  0  0  0
 23 22  1  0  0  0  0
 23 38  1  0  0  0  0
 24 25  1  0  0  0  0
 24 39  1  0  0  0  0
 25 26  1  0  0  0  0
 26 40  1  0  0  0  0
 28  3  1  0  0  0  0
 32  8  1  0  0  0  0
 33  9  1  0  0  0  0
 34 10  1  0  0  0  0
 36 16  1  0  0  0  0
 37 19  1  0  0  0  0
M  END
