76.8776
 OpenBabel10231816213D

 50 52  0  0  1  0  0  0  0  0999 V2000
    6.1569    1.6178   -1.1233 O   0  0  0  0  0  0  0  0  0  0  0  0
    5.0960    2.2731   -0.6209 C   0  0  0  0  0  0  0  0  0  0  0  0
    5.1930    3.4136   -0.1883 O   0  0  0  0  0  0  0  0  0  0  0  0
    3.7929    1.4932   -0.5598 C   0  0  1  0  0  0  0  0  0  0  0  0
    3.6547    0.3139   -1.5309 C   0  0  0  0  0  0  0  0  0  0  0  0
    2.2729   -0.3406   -1.3873 C   0  0  0  0  0  0  0  0  0  0  0  0
    2.0230   -0.8509    0.0607 C   0  0  2  0  0  0  0  0  0  0  0  0
    2.1920    0.3459    1.0376 C   0  0  0  0  0  0  0  0  0  0  0  0
    3.5539    1.0374    0.8828 C   0  0  0  0  0  0  0  0  0  0  0  0
    3.0722   -1.8565    0.3792 C   0  0  0  0  0  0  0  0  0  0  0  0
    3.9224   -2.6211    0.6042 N   0  0  0  0  0  0  0  0  0  0  0  0
    0.6164   -1.4552    0.1827 C   0  0  0  0  0  0  0  0  0  0  0  0
    0.4058   -2.7899    0.5732 C   0  0  0  0  0  0  0  0  0  0  0  0
   -0.8797   -3.3226    0.6811 C   0  0  0  0  0  0  0  0  0  0  0  0
   -1.9908   -2.5285    0.4099 C   0  0  0  0  0  0  0  0  0  0  0  0
   -3.2901   -2.9560    0.4860 O   0  0  0  0  0  0  0  0  0  0  0  0
   -3.5172   -4.3036    0.8620 C   0  0  0  0  0  0  0  0  0  0  0  0
   -1.8095   -1.1879    0.0325 C   0  0  0  0  0  0  0  0  0  0  0  0
   -0.5182   -0.6719   -0.0946 C   0  0  0  0  0  0  0  0  0  0  0  0
   -2.9551   -0.4707   -0.1858 O   0  0  0  0  0  0  0  0  0  0  0  0
   -2.8700    0.9268   -0.4150 C   0  0  0  0  0  0  0  0  0  0  0  0
   -2.5665    1.7335    0.8450 C   0  0  0  0  0  0  0  0  0  0  0  0
   -3.0608    3.1272    0.4904 C   0  0  0  0  0  0  0  0  0  0  0  0
   -4.3047    2.8987   -0.3673 C   0  0  0  0  0  0  0  0  0  0  0  0
   -4.2624    1.4318   -0.7923 C   0  0  0  0  0  0  0  0  0  0  0  0
    6.0039    0.7009   -1.4114 H   0  0  0  0  0  0  0  0  0  0  0  0
    3.0160    2.2204   -0.8340 H   0  0  0  0  0  0  0  0  0  0  0  0
    3.8104    0.6435   -2.5638 H   0  0  0  0  0  0  0  0  0  0  0  0
    4.4217   -0.4445   -1.3349 H   0  0  0  0  0  0  0  0  0  0  0  0
    1.5185    0.4051   -1.6742 H   0  0  0  0  0  0  0  0  0  0  0  0
    2.1795   -1.1642   -2.1077 H   0  0  0  0  0  0  0  0  0  0  0  0
    2.0696    0.0138    2.0762 H   0  0  0  0  0  0  0  0  0  0  0  0
    1.4110    1.0999    0.8643 H   0  0  0  0  0  0  0  0  0  0  0  0
    4.3564    0.3556    1.1912 H   0  0  0  0  0  0  0  0  0  0  0  0
    3.6103    1.8945    1.5635 H   0  0  0  0  0  0  0  0  0  0  0  0
    1.2342   -3.4568    0.8060 H   0  0  0  0  0  0  0  0  0  0  0  0
   -0.9723   -4.3595    0.9846 H   0  0  0  0  0  0  0  0  0  0  0  0
   -3.1469   -4.4997    1.8735 H   0  0  0  0  0  0  0  0  0  0  0  0
   -4.5994   -4.4577    0.8620 H   0  0  0  0  0  0  0  0  0  0  0  0
   -3.0762   -4.9984    0.1396 H   0  0  0  0  0  0  0  0  0  0  0  0
   -0.3770    0.3565   -0.4083 H   0  0  0  0  0  0  0  0  0  0  0  0
   -2.1777    1.1583   -1.2344 H   0  0  0  0  0  0  0  0  0  0  0  0
   -1.5050    1.7317    1.1101 H   0  0  0  0  0  0  0  0  0  0  0  0
   -3.1116    1.3264    1.7054 H   0  0  0  0  0  0  0  0  0  0  0  0
   -3.2683    3.7307    1.3792 H   0  0  0  0  0  0  0  0  0  0  0  0
   -2.3004    3.6577   -0.0960 H   0  0  0  0  0  0  0  0  0  0  0  0
   -4.3101    3.5698   -1.2328 H   0  0  0  0  0  0  0  0  0  0  0  0
   -5.2199    3.1014    0.2003 H   0  0  0  0  0  0  0  0  0  0  0  0
   -5.0318    0.8586   -0.2594 H   0  0  0  0  0  0  0  0  0  0  0  0
   -4.4623    1.2985   -1.8608 H   0  0  0  0  0  0  0  0  0  0  0  0
  1  2  1  0  0  0  0
  2  4  1  0  0  0  0
  2  3  2  0  0  0  0
  4 27  1  6  0  0  0
  4  9  1  0  0  0  0
  5  6  1  0  0  0  0
  5 29  1  0  0  0  0
  5  4  1  0  0  0  0
  6  7  1  0  0  0  0
  7 12  1  1  0  0  0
  7 10  1  0  0  0  0
  7  8  1  0  0  0  0
  8 32  1  0  0  0  0
  9  8  1  0  0  0  0
  9 34  1  0  0  0  0
  9 35  1  0  0  0  0
 10 11  3  0  0  0  0
 12 13  2  0  0  0  0
 13 14  1  0  0  0  0
 13 36  1  0  0  0  0
 14 37  1  0  0  0  0
 15 16  1  0  0  0  0
 15 14  2  0  0  0  0
 16 17  1  0  0  0  0
 17 38  1  0  0  0  0
 18 15  1  0  0  0  0
 19 18  2  0  0  0  0
 19 12  1  0  0  0  0
 20 18  1  0  0  0  0
 21 20  1  0  0  0  0
 21 22  1  0  0  0  0
 22 43  1  0  0  0  0
 22 44  1  0  0  0  0
 23 22  1  0  0  0  0
 23 45  1  0  0  0  0
 24 48  1  0  0  0  0
 24 23  1  0  0  0  0
 25 21  1  0  0  0  0
 25 24  1  0  0  0  0
 25 49  1  0  0  0  0
 26  1  1  0  0  0  0
 28  5  1  0  0  0  0
 30  6  1  0  0  0  0
 31  6  1  0  0  0  0
 33  8  1  0  0  0  0
 39 17  1  0  0  0  0
 40 17  1  0  0  0  0
 41 19  1  0  0  0  0
 42 21  1  0  0  0  0
 46 23  1  0  0  0  0
 47 24  1  0  0  0  0
 50 25  1  0  0  0  0
M  END
