57.7261
 OpenBabel10231816213D

 25 25  0  0  1  0  0  0  0  0999 V2000
   -1.3050   -3.5972   -1.5737 O   0  0  0  0  0  0  0  0  0  0  0  0
   -0.6992   -2.3866   -1.5339 C   0  0  0  0  0  0  0  0  0  0  0  0
    0.3027   -2.1893   -2.2059 O   0  0  0  0  0  0  0  0  0  0  0  0
   -1.2990   -1.4186   -0.6171 C   0  0  0  0  0  0  0  0  0  0  0  0
   -2.3664   -1.7311    0.1378 N   0  0  0  0  0  0  0  0  0  0  0  0
   -2.6627   -0.6194    0.8928 O   0  0  0  0  0  0  0  0  0  0  0  0
   -1.7715    0.3671    0.6196 C   0  0  0  0  0  0  0  0  0  0  0  0
   -0.8512   -0.0870   -0.3044 C   0  0  0  0  0  0  0  0  0  0  0  0
    0.3420    0.6565   -0.8158 C   0  0  0  0  0  0  0  0  0  0  0  0
    1.3566    1.0302    0.2817 C   0  0  2  0  0  0  0  0  0  0  0  0
    2.2182    2.1306   -0.2311 N   0  0  0  0  0  0  0  0  0  0  0  0
    2.2593   -0.1346    0.7470 C   0  0  0  0  0  0  0  0  0  0  0  0
    3.4740   -0.0040    0.9049 O   0  0  0  0  0  0  0  0  0  0  0  0
    1.6466   -1.2883    1.0592 O   0  0  0  0  0  0  0  0  0  0  0  0
   -1.9499    1.6295    1.3644 C   0  0  0  0  0  0  0  0  0  0  0  0
   -0.7644   -4.1207   -2.2001 H   0  0  0  0  0  0  0  0  0  0  0  0
   -0.0382    1.5731   -1.2917 H   0  0  0  0  0  0  0  0  0  0  0  0
    0.8481    0.0951   -1.6088 H   0  0  0  0  0  0  0  0  0  0  0  0
    0.8550    1.4166    1.1764 H   0  0  0  0  0  0  0  0  0  0  0  0
    2.7861    1.7590   -0.9997 H   0  0  0  0  0  0  0  0  0  0  0  0
    2.9209    2.3279    0.4902 H   0  0  0  0  0  0  0  0  0  0  0  0
    0.6747   -1.2925    1.0251 H   0  0  0  0  0  0  0  0  0  0  0  0
   -3.0041    1.9099    1.4187 H   0  0  0  0  0  0  0  0  0  0  0  0
   -1.5642    1.5257    2.3842 H   0  0  0  0  0  0  0  0  0  0  0  0
   -1.4086    2.4483    0.8801 H   0  0  0  0  0  0  0  0  0  0  0  0
  1  2  1  0  0  0  0
  2  4  1  0  0  0  0
  3  2  2  0  0  0  0
  4  8  1  0  0  0  0
  4  5  2  0  0  0  0
  5  6  1  0  0  0  0
  7  6  1  0  0  0  0
  7 15  1  0  0  0  0
  8  7  2  0  0  0  0
  9  8  1  0  0  0  0
  9 10  1  0  0  0  0
 10 12  1  0  0  0  0
 10 19  1  1  0  0  0
 11 10  1  0  0  0  0
 11 21  1  0  0  0  0
 12 13  2  0  0  0  0
 12 14  1  0  0  0  0
 15 23  1  0  0  0  0
 15 24  1  0  0  0  0
 16  1  1  0  0  0  0
 17  9  1  0  0  0  0
 18  9  1  0  0  0  0
 20 11  1  0  0  0  0
 22 14  1  0  0  0  0
 25 15  1  0  0  0  0
M  END
