-8.79538
 OpenBabel10231816213D

 66 68  0  0  1  0  0  0  0  0999 V2000
    0.9140   -1.8689    0.6017 C   0  0  2  0  0  0  0  0  0  0  0  0
    0.4776   -3.2686    0.0941 C   0  0  0  0  0  0  0  0  0  0  0  0
   -1.0310   -3.4428    0.0753 C   0  0  0  0  0  0  0  0  0  0  0  0
   -1.7037   -3.7592   -1.1122 C   0  0  0  0  0  0  0  0  0  0  0  0
   -3.1025   -3.7266   -1.1692 C   0  0  0  0  0  0  0  0  0  0  0  0
   -3.8334   -3.3454   -0.0452 C   0  0  0  0  0  0  0  0  0  0  0  0
   -3.1852   -3.1372    1.1637 C   0  0  0  0  0  0  0  0  0  0  0  0
   -1.7912   -3.2003    1.2250 C   0  0  0  0  0  0  0  0  0  0  0  0
   -5.1796   -3.1449   -0.1969 O   0  0  0  0  0  0  0  0  0  0  0  0
   -5.5647   -1.7685    0.0106 C   0  0  0  0  0  0  0  0  0  0  0  0
   -4.9023   -0.8244   -1.0070 C   0  0  0  0  0  0  0  0  0  0  0  0
   -4.8873    0.6380   -0.5715 C   0  0  0  0  0  0  0  0  0  0  0  0
   -4.2701    0.8411    0.7974 C   0  0  0  0  0  0  0  0  0  0  0  0
   -4.9928    0.8746    1.8095 O   0  0  0  0  0  0  0  0  0  0  0  0
   -2.9272    0.9523    0.9456 N   0  0  0  0  0  0  0  0  0  0  0  0
   -1.8496    0.6908   -0.0229 C   0  0  2  0  0  0  0  0  0  0  0  0
   -0.7933   -0.1083    0.7555 C   0  0  0  0  0  0  0  0  0  0  0  0
   -0.7561   -0.1124    1.9970 O   0  0  0  0  0  0  0  0  0  0  0  0
    0.1169   -0.7995    0.0045 N   0  0  0  0  0  0  0  0  0  0  0  0
   -1.2931    1.9965   -0.5636 C   0  0  0  0  0  0  0  0  0  0  0  0
   -0.4189    1.7735   -1.7824 C   0  0  0  0  0  0  0  0  0  0  0  0
   -0.2720    0.6953   -2.3404 O   0  0  0  0  0  0  0  0  0  0  0  0
    0.2194    2.8961   -2.2285 N   0  0  0  0  0  0  0  0  0  0  0  0
    2.4058   -1.6290    0.3461 C   0  0  2  0  0  0  0  0  0  0  0  0
    3.2073   -2.7353    0.7870 O   0  0  0  0  0  0  0  0  0  0  0  0
    2.8902   -0.3412    1.0348 C   0  0  0  0  0  0  0  0  0  0  0  0
    4.3134   -0.1654    0.6957 N   0  0  0  0  0  0  0  0  0  0  0  0
    5.1805    1.0337    1.4851 S   0  0  0  0  0  0  0  0  0  0  0  0
    6.5695    0.6447    1.3232 O   0  0  0  0  0  0  0  0  0  0  0  0
    4.5934    1.2127    2.7872 O   0  0  0  0  0  0  0  0  0  0  0  0
    4.9189    2.4905    0.5283 C   0  0  0  0  0  0  0  0  0  0  0  0
    5.9012    2.8961   -0.3738 C   0  0  0  0  0  0  0  0  0  0  0  0
    5.7203    4.0619   -1.1166 C   0  0  0  0  0  0  0  0  0  0  0  0
    4.5676    4.8289   -0.9383 C   0  0  0  0  0  0  0  0  0  0  0  0
    3.5989    4.4349   -0.0122 C   0  0  0  0  0  0  0  0  0  0  0  0
    3.7793    3.2674    0.7331 C   0  0  0  0  0  0  0  0  0  0  0  0
    0.7412   -1.8365    1.6844 H   0  0  0  0  0  0  0  0  0  0  0  0
    0.8746   -3.4174   -0.9199 H   0  0  0  0  0  0  0  0  0  0  0  0
    0.9339   -4.0441    0.7250 H   0  0  0  0  0  0  0  0  0  0  0  0
   -1.1400   -3.9997   -2.0105 H   0  0  0  0  0  0  0  0  0  0  0  0
   -3.6199   -3.9253   -2.1043 H   0  0  0  0  0  0  0  0  0  0  0  0
   -3.7572   -2.8980    2.0534 H   0  0  0  0  0  0  0  0  0  0  0  0
   -1.2947   -2.9952    2.1705 H   0  0  0  0  0  0  0  0  0  0  0  0
   -6.6571   -1.7424   -0.1041 H   0  0  0  0  0  0  0  0  0  0  0  0
   -5.3483   -1.4662    1.0388 H   0  0  0  0  0  0  0  0  0  0  0  0
   -3.8786   -1.1504   -1.1867 H   0  0  0  0  0  0  0  0  0  0  0  0
   -5.4070   -0.9209   -1.9774 H   0  0  0  0  0  0  0  0  0  0  0  0
   -4.3582    1.2478   -1.3161 H   0  0  0  0  0  0  0  0  0  0  0  0
   -5.9164    1.0190   -0.5221 H   0  0  0  0  0  0  0  0  0  0  0  0
   -2.6202    0.9539    1.9208 H   0  0  0  0  0  0  0  0  0  0  0  0
   -2.2310    0.0740   -0.8351 H   0  0  0  0  0  0  0  0  0  0  0  0
    0.1254   -0.6743   -1.0108 H   0  0  0  0  0  0  0  0  0  0  0  0
   -0.7369    2.5362    0.2083 H   0  0  0  0  0  0  0  0  0  0  0  0
   -2.1287    2.6326   -0.8734 H   0  0  0  0  0  0  0  0  0  0  0  0
   -0.0126    3.8162   -1.8796 H   0  0  0  0  0  0  0  0  0  0  0  0
    0.7351    2.8396   -3.1016 H   0  0  0  0  0  0  0  0  0  0  0  0
    2.5736   -1.5411   -0.7308 H   0  0  0  0  0  0  0  0  0  0  0  0
    3.1053   -2.8015    1.7529 H   0  0  0  0  0  0  0  0  0  0  0  0
    2.3233    0.5244    0.6905 H   0  0  0  0  0  0  0  0  0  0  0  0
    2.7767   -0.4453    2.1193 H   0  0  0  0  0  0  0  0  0  0  0  0
    4.8458   -1.0400    0.7354 H   0  0  0  0  0  0  0  0  0  0  0  0
    6.8005    2.2959   -0.4949 H   0  0  0  0  0  0  0  0  0  0  0  0
    6.4793    4.3691   -1.8318 H   0  0  0  0  0  0  0  0  0  0  0  0
    4.4273    5.7389   -1.5175 H   0  0  0  0  0  0  0  0  0  0  0  0
    2.7064    5.0385    0.1319 H   0  0  0  0  0  0  0  0  0  0  0  0
    3.0383    2.9612    1.4655 H   0  0  0  0  0  0  0  0  0  0  0  0
  1 37  1  1  0  0  0
  2  1  1  0  0  0  0
  2 39  1  0  0  0  0
  3  2  1  0  0  0  0
  3  8  2  0  0  0  0
  4  3  1  0  0  0  0
  5  4  2  0  0  0  0
  5  6  1  0  0  0  0
  6  7  2  0  0  0  0
  7  8  1  0  0  0  0
  7 42  1  0  0  0  0
  8 43  1  0  0  0  0
  9  6  1  0  0  0  0
  9 10  1  0  0  0  0
 10 45  1  0  0  0  0
 11 12  1  0  0  0  0
 11 10  1  0  0  0  0
 12 49  1  0  0  0  0
 12 13  1  0  0  0  0
 13 15  1  0  0  0  0
 13 14  2  0  0  0  0
 15 50  1  0  0  0  0
 16 51  1  6  0  0  0
 16 17  1  0  0  0  0
 16 15  1  0  0  0  0
 17 18  2  0  0  0  0
 19  1  1  0  0  0  0
 19 17  1  0  0  0  0
 20 16  1  0  0  0  0
 20 53  1  0  0  0  0
 21 20  1  0  0  0  0
 22 21  2  0  0  0  0
 23 55  1  0  0  0  0
 23 21  1  0  0  0  0
 24 57  1  6  0  0  0
 24  1  1  0  0  0  0
 24 25  1  0  0  0  0
 24 26  1  0  0  0  0
 25 58  1  0  0  0  0
 26 60  1  0  0  0  0
 27 61  1  0  0  0  0
 27 26  1  0  0  0  0
 27 28  1  0  0  0  0
 28 30  2  0  0  0  0
 29 28  2  0  0  0  0
 31 36  1  0  0  0  0
 31 28  1  0  0  0  0
 32 31  2  0  0  0  0
 33 34  2  0  0  0  0
 33 32  1  0  0  0  0
 34 35  1  0  0  0  0
 35 65  1  0  0  0  0
 35 36  2  0  0  0  0
 36 66  1  0  0  0  0
 38  2  1  0  0  0  0
 40  4  1  0  0  0  0
 41  5  1  0  0  0  0
 44 10  1  0  0  0  0
 46 11  1  0  0  0  0
 47 11  1  0  0  0  0
 48 12  1  0  0  0  0
 52 19  1  0  0  0  0
 54 20  1  0  0  0  0
 56 23  1  0  0  0  0
 59 26  1  0  0  0  0
 62 32  1  0  0  0  0
 63 33  1  0  0  0  0
 64 34  1  0  0  0  0
M  END
