126.313
 OpenBabel10231816213D

 34 35  0  0  1  0  0  0  0  0999 V2000
   -1.2023   -0.9766   -0.3192 C   0  0  1  0  0  0  0  0  0  0  0  0
    0.2490   -0.8355   -0.4534 N   0  0  0  0  0  0  0  0  0  0  0  0
    0.8216    0.4534   -0.0635 C   0  0  0  0  0  0  0  0  0  0  0  0
    2.3348    0.4345   -0.1251 C   0  0  0  0  0  0  0  0  0  0  0  0
    3.0637   -0.7202    0.2012 C   0  0  0  0  0  0  0  0  0  0  0  0
    4.4563   -0.7156    0.1814 C   0  0  0  0  0  0  0  0  0  0  0  0
    5.1456    0.4521   -0.1435 C   0  0  0  0  0  0  0  0  0  0  0  0
    4.4367    1.6146   -0.4456 C   0  0  0  0  0  0  0  0  0  0  0  0
    3.0395    1.6086   -0.4336 C   0  0  0  0  0  0  0  0  0  0  0  0
   -1.7940   -1.0197    1.1113 C   0  0  1  0  0  0  0  0  0  0  0  0
   -1.4725    0.1007    1.9441 O   0  0  0  0  0  0  0  0  0  0  0  0
   -3.2980   -0.9820    0.8080 C   0  0  1  0  0  0  0  0  0  0  0  0
   -4.0697   -0.6440    1.9611 O   0  0  0  0  0  0  0  0  0  0  0  0
   -3.4029    0.1204   -0.2571 C   0  0  1  0  0  0  0  0  0  0  0  0
   -3.4143    1.3969    0.4171 O   0  0  0  0  0  0  0  0  0  0  0  0
   -2.1035    0.0296   -1.0854 C   0  0  2  0  0  0  0  0  0  0  0  0
   -2.4060   -0.5101   -2.8047 S   0  0  0  0  0  0  0  0  0  0  0  0
   -1.4077   -1.9807   -0.7217 H   0  0  0  0  0  0  0  0  0  0  0  0
    0.5353   -1.0330   -1.4125 H   0  0  0  0  0  0  0  0  0  0  0  0
    0.5552    0.7337    0.9577 H   0  0  0  0  0  0  0  0  0  0  0  0
    0.4597    1.2344   -0.7407 H   0  0  0  0  0  0  0  0  0  0  0  0
    2.5425   -1.6345    0.4773 H   0  0  0  0  0  0  0  0  0  0  0  0
    5.0035   -1.6209    0.4265 H   0  0  0  0  0  0  0  0  0  0  0  0
    6.2315    0.4577   -0.1497 H   0  0  0  0  0  0  0  0  0  0  0  0
    4.9735    2.5283   -0.6825 H   0  0  0  0  0  0  0  0  0  0  0  0
    2.5074    2.5267   -0.6572 H   0  0  0  0  0  0  0  0  0  0  0  0
   -1.5087   -1.9261    1.6543 H   0  0  0  0  0  0  0  0  0  0  0  0
   -1.8360    0.9080    1.5237 H   0  0  0  0  0  0  0  0  0  0  0  0
   -3.6407   -1.9422    0.4061 H   0  0  0  0  0  0  0  0  0  0  0  0
   -3.4222   -0.4155    2.6616 H   0  0  0  0  0  0  0  0  0  0  0  0
   -4.3288    0.0569   -0.8362 H   0  0  0  0  0  0  0  0  0  0  0  0
   -4.1504    1.3295    1.0611 H   0  0  0  0  0  0  0  0  0  0  0  0
   -1.6450    1.0208   -1.1464 H   0  0  0  0  0  0  0  0  0  0  0  0
   -1.2531   -0.0501   -3.3142 H   0  0  0  0  0  0  0  0  0  0  0  0
  1 18  1  6  0  0  0
  1 10  1  0  0  0  0
  2  1  1  0  0  0  0
  2  3  1  0  0  0  0
  3 20  1  0  0  0  0
  4  3  1  0  0  0  0
  4  5  2  0  0  0  0
  5 22  1  0  0  0  0
  6  5  1  0  0  0  0
  6 23  1  0  0  0  0
  7  6  2  0  0  0  0
  8  9  2  0  0  0  0
  8  7  1  0  0  0  0
  9  4  1  0  0  0  0
 10 27  1  1  0  0  0
 10 11  1  0  0  0  0
 12 29  1  6  0  0  0
 12 10  1  0  0  0  0
 12 13  1  0  0  0  0
 13 30  1  0  0  0  0
 14 31  1  6  0  0  0
 14 15  1  0  0  0  0
 14 12  1  0  0  0  0
 15 32  1  0  0  0  0
 16 33  1  6  0  0  0
 16  1  1  0  0  0  0
 16 14  1  0  0  0  0
 17 16  1  0  0  0  0
 19  2  1  0  0  0  0
 21  3  1  0  0  0  0
 24  7  1  0  0  0  0
 25  8  1  0  0  0  0
 26  9  1  0  0  0  0
 28 11  1  0  0  0  0
 34 17  1  0  0  0  0
M  END
