43.6806
 OpenBabel10231816213D

 61 65  0  0  0  0  0  0  0  0999 V2000
    9.3295    0.2980   -0.5277 N   0  0  0  0  0  0  0  0  0  0  0  0
    8.5754   -0.1814   -1.5354 C   0  0  0  0  0  0  0  0  0  0  0  0
    7.1952   -0.3025   -1.4808 C   0  0  0  0  0  0  0  0  0  0  0  0
    6.5036    0.1121   -0.3402 C   0  0  0  0  0  0  0  0  0  0  0  0
    7.2921    0.5894    0.7225 C   0  0  0  0  0  0  0  0  0  0  0  0
    8.6626    0.6633    0.5840 C   0  0  0  0  0  0  0  0  0  0  0  0
    5.1186    0.0056   -0.2526 N   0  0  0  0  0  0  0  0  0  0  0  0
    4.4817    0.2537    1.0395 C   0  0  0  0  0  0  0  0  0  0  0  0
    2.9721    0.0287    0.9572 C   0  0  0  0  0  0  0  0  0  0  0  0
    2.6723   -1.1242   -0.0019 C   0  0  0  0  0  0  0  0  0  0  0  0
    3.1433   -0.8142   -1.4361 C   0  0  0  0  0  0  0  0  0  0  0  0
    4.2778    0.2207   -1.4311 C   0  0  0  0  0  0  0  0  0  0  0  0
    1.2553   -1.6389    0.1071 C   0  0  0  0  0  0  0  0  0  0  0  0
    1.0612   -2.7095    0.7355 O   0  0  0  0  0  0  0  0  0  0  0  0
    0.2126   -0.9502   -0.4608 N   0  0  0  0  0  0  0  0  0  0  0  0
   -1.1295   -1.5028   -0.3012 C   0  0  0  0  0  0  0  0  0  0  0  0
   -1.8705   -0.7975    0.8389 C   0  0  0  0  0  0  0  0  0  0  0  0
   -1.8979    0.6628    0.5606 N   0  0  0  0  0  0  0  0  0  0  0  0
   -0.5474    1.2485    0.3504 C   0  0  0  0  0  0  0  0  0  0  0  0
    0.1801    0.4872   -0.7657 C   0  0  0  0  0  0  0  0  0  0  0  0
   -2.8931    1.6077    1.5359 S   0  0  0  0  0  0  0  0  0  0  0  0
   -2.5727    1.3157    2.9154 O   0  0  0  0  0  0  0  0  0  0  0  0
   -2.8245    2.9556    1.0148 O   0  0  0  0  0  0  0  0  0  0  0  0
   -4.4959    0.9442    1.1703 C   0  0  0  0  0  0  0  0  0  0  0  0
   -4.9979    0.9765   -0.1340 C   0  0  0  0  0  0  0  0  0  0  0  0
   -6.2661    0.4400   -0.4094 C   0  0  0  0  0  0  0  0  0  0  0  0
   -7.0290   -0.1411    0.6377 C   0  0  0  0  0  0  0  0  0  0  0  0
   -6.4950   -0.1753    1.9360 C   0  0  0  0  0  0  0  0  0  0  0  0
   -5.2304    0.3595    2.1988 C   0  0  0  0  0  0  0  0  0  0  0  0
   -8.2985   -0.6706    0.3581 C   0  0  0  0  0  0  0  0  0  0  0  0
   -8.8066   -0.6265   -0.9431 C   0  0  0  0  0  0  0  0  0  0  0  0
   -8.0630   -0.0603   -1.9729 C   0  0  0  0  0  0  0  0  0  0  0  0
   -6.7984    0.4709   -1.7086 C   0  0  0  0  0  0  0  0  0  0  0  0
  -10.3633   -1.2789   -1.2752 Cl  0  0  0  0  0  0  0  0  0  0  0  0
    9.1250   -0.4876   -2.4218 H   0  0  0  0  0  0  0  0  0  0  0  0
    6.6811   -0.7531   -2.3196 H   0  0  0  0  0  0  0  0  0  0  0  0
    6.8539    0.9025    1.6629 H   0  0  0  0  0  0  0  0  0  0  0  0
    9.2779    1.0405    1.3946 H   0  0  0  0  0  0  0  0  0  0  0  0
    4.6842    1.2776    1.3726 H   0  0  0  0  0  0  0  0  0  0  0  0
    4.9079   -0.4392    1.7737 H   0  0  0  0  0  0  0  0  0  0  0  0
    2.4901    0.9563    0.6300 H   0  0  0  0  0  0  0  0  0  0  0  0
    2.5752   -0.1849    1.9519 H   0  0  0  0  0  0  0  0  0  0  0  0
    3.2908   -1.9685    0.3440 H   0  0  0  0  0  0  0  0  0  0  0  0
    2.3341   -0.4642   -2.0884 H   0  0  0  0  0  0  0  0  0  0  0  0
    3.4933   -1.7465   -1.8997 H   0  0  0  0  0  0  0  0  0  0  0  0
    3.8526    1.2332   -1.3905 H   0  0  0  0  0  0  0  0  0  0  0  0
    4.8333    0.1648   -2.3670 H   0  0  0  0  0  0  0  0  0  0  0  0
   -1.0690   -2.5807   -0.1196 H   0  0  0  0  0  0  0  0  0  0  0  0
   -1.6655   -1.3434   -1.2431 H   0  0  0  0  0  0  0  0  0  0  0  0
   -2.8996   -1.1581    0.8673 H   0  0  0  0  0  0  0  0  0  0  0  0
   -1.3833   -0.9995    1.7980 H   0  0  0  0  0  0  0  0  0  0  0  0
    0.0271    1.2134    1.2820 H   0  0  0  0  0  0  0  0  0  0  0  0
   -0.6764    2.2888    0.0400 H   0  0  0  0  0  0  0  0  0  0  0  0
   -0.3791    0.5927   -1.7025 H   0  0  0  0  0  0  0  0  0  0  0  0
    1.1734    0.8923   -0.9319 H   0  0  0  0  0  0  0  0  0  0  0  0
   -4.4013    1.4234   -0.9268 H   0  0  0  0  0  0  0  0  0  0  0  0
   -7.0611   -0.6150    2.7554 H   0  0  0  0  0  0  0  0  0  0  0  0
   -4.8256    0.3245    3.2114 H   0  0  0  0  0  0  0  0  0  0  0  0
   -8.8979   -1.1190    1.1501 H   0  0  0  0  0  0  0  0  0  0  0  0
   -8.4676   -0.0299   -2.9857 H   0  0  0  0  0  0  0  0  0  0  0  0
   -6.2268    0.9136   -2.5231 H   0  0  0  0  0  0  0  0  0  0  0  0
  1  6  2  0  0  0  0
  2  3  2  0  0  0  0
  2  1  1  0  0  0  0
  3  4  1  0  0  0  0
  4  7  1  0  0  0  0
  4  5  2  0  0  0  0
  5 37  1  0  0  0  0
  6  5  1  0  0  0  0
  6 38  1  0  0  0  0
  7  8  1  0  0  0  0
  8 39  1  0  0  0  0
  8 40  1  0  0  0  0
  9  8  1  0  0  0  0
  9 42  1  0  0  0  0
 10 13  1  0  0  0  0
 10 43  1  0  0  0  0
 10  9  1  0  0  0  0
 11 12  1  0  0  0  0
 11 10  1  0  0  0  0
 12 46  1  0  0  0  0
 12  7  1  0  0  0  0
 13 14  2  0  0  0  0
 15 16  1  0  0  0  0
 15 13  1  0  0  0  0
 16 48  1  0  0  0  0
 16 17  1  0  0  0  0
 17 50  1  0  0  0  0
 17 51  1  0  0  0  0
 18 17  1  0  0  0  0
 18 21  1  0  0  0  0
 19 18  1  0  0  0  0
 19 52  1  0  0  0  0
 20 15  1  0  0  0  0
 20 19  1  0  0  0  0
 21 22  2  0  0  0  0
 23 21  2  0  0  0  0
 24 21  1  0  0  0  0
 24 29  2  0  0  0  0
 25 24  1  0  0  0  0
 26 25  2  0  0  0  0
 26 27  1  0  0  0  0
 27 28  2  0  0  0  0
 28 29  1  0  0  0  0
 28 57  1  0  0  0  0
 29 58  1  0  0  0  0
 30 27  1  0  0  0  0
 30 59  1  0  0  0  0
 31 30  2  0  0  0  0
 32 33  2  0  0  0  0
 32 31  1  0  0  0  0
 33 26  1  0  0  0  0
 34 31  1  0  0  0  0
 35  2  1  0  0  0  0
 36  3  1  0  0  0  0
 41  9  1  0  0  0  0
 44 11  1  0  0  0  0
 45 11  1  0  0  0  0
 47 12  1  0  0  0  0
 49 16  1  0  0  0  0
 53 19  1  0  0  0  0
 54 20  1  0  0  0  0
 55 20  1  0  0  0  0
 56 25  1  0  0  0  0
 60 32  1  0  0  0  0
 61 33  1  0  0  0  0
M  END
