121.05
 OpenBabel10231816213D

 34 35  0  0  1  0  0  0  0  0999 V2000
   -1.3386   -1.0387   -0.6641 C   0  0  1  0  0  0  0  0  0  0  0  0
   -0.0483   -0.5951   -0.0815 N   0  0  0  0  0  0  0  0  0  0  0  0
    1.0417   -0.5509   -1.0639 C   0  0  0  0  0  0  0  0  0  0  0  0
    2.2781    0.1166   -0.4979 C   0  0  0  0  0  0  0  0  0  0  0  0
    2.5036    0.2250    0.8859 C   0  0  0  0  0  0  0  0  0  0  0  0
    3.6513    0.8393    1.3814 C   0  0  0  0  0  0  0  0  0  0  0  0
    4.6075    1.3441    0.5005 C   0  0  0  0  0  0  0  0  0  0  0  0
    4.4093    1.2296   -0.8727 C   0  0  0  0  0  0  0  0  0  0  0  0
    3.2548    0.6198   -1.3720 C   0  0  0  0  0  0  0  0  0  0  0  0
   -2.1866   -1.6228    0.4998 C   0  0  1  0  0  0  0  0  0  0  0  0
   -1.3590   -2.1280    1.5591 O   0  0  0  0  0  0  0  0  0  0  0  0
   -3.0719   -0.4744    1.0192 C   0  0  1  0  0  0  0  0  0  0  0  0
   -2.7829   -0.1497    2.3849 O   0  0  0  0  0  0  0  0  0  0  0  0
   -2.7650    0.7366    0.1246 C   0  0  1  0  0  0  0  0  0  0  0  0
   -1.7487    1.5422    0.7513 O   0  0  0  0  0  0  0  0  0  0  0  0
   -2.2024    0.1388   -1.1742 C   0  0  2  0  0  0  0  0  0  0  0  0
   -3.5305   -0.4385   -2.2946 S   0  0  0  0  0  0  0  0  0  0  0  0
   -1.1570   -1.8121   -1.4210 H   0  0  0  0  0  0  0  0  0  0  0  0
   -0.1792    0.3646    0.2713 H   0  0  0  0  0  0  0  0  0  0  0  0
    0.7178   -0.0033   -1.9573 H   0  0  0  0  0  0  0  0  0  0  0  0
    1.3100   -1.5732   -1.3607 H   0  0  0  0  0  0  0  0  0  0  0  0
    1.7828   -0.1704    1.5958 H   0  0  0  0  0  0  0  0  0  0  0  0
    3.7983    0.9241    2.4552 H   0  0  0  0  0  0  0  0  0  0  0  0
    5.5007    1.8199    0.8881 H   0  0  0  0  0  0  0  0  0  0  0  0
    5.1572    1.6181   -1.5617 H   0  0  0  0  0  0  0  0  0  0  0  0
    3.1229    0.5413   -2.4496 H   0  0  0  0  0  0  0  0  0  0  0  0
   -2.8088   -2.4477    0.1361 H   0  0  0  0  0  0  0  0  0  0  0  0
   -0.4536   -1.8097    1.3213 H   0  0  0  0  0  0  0  0  0  0  0  0
   -4.1276   -0.7564    0.9376 H   0  0  0  0  0  0  0  0  0  0  0  0
   -2.2648   -0.9174    2.7145 H   0  0  0  0  0  0  0  0  0  0  0  0
   -3.6343    1.3789   -0.0206 H   0  0  0  0  0  0  0  0  0  0  0  0
   -1.8917    1.4042    1.7151 H   0  0  0  0  0  0  0  0  0  0  0  0
   -1.5948    0.8661   -1.7246 H   0  0  0  0  0  0  0  0  0  0  0  0
   -3.9903    0.7786   -2.6251 H   0  0  0  0  0  0  0  0  0  0  0  0
  1 18  1  6  0  0  0
  1  2  1  0  0  0  0
  1 10  1  0  0  0  0
  2 19  1  0  0  0  0
  3  4  1  0  0  0  0
  3  2  1  0  0  0  0
  4  5  2  0  0  0  0
  5  6  1  0  0  0  0
  5 22  1  0  0  0  0
  6 23  1  0  0  0  0
  7 24  1  0  0  0  0
  7  6  2  0  0  0  0
  8  7  1  0  0  0  0
  9  8  2  0  0  0  0
  9  4  1  0  0  0  0
 10 27  1  6  0  0  0
 10 12  1  0  0  0  0
 10 11  1  0  0  0  0
 12 29  1  6  0  0  0
 12 13  1  0  0  0  0
 13 30  1  0  0  0  0
 14 31  1  6  0  0  0
 14 15  1  0  0  0  0
 14 12  1  0  0  0  0
 15 32  1  0  0  0  0
 16 33  1  6  0  0  0
 16  1  1  0  0  0  0
 16 14  1  0  0  0  0
 17 16  1  0  0  0  0
 20  3  1  0  0  0  0
 21  3  1  0  0  0  0
 25  8  1  0  0  0  0
 26  9  1  0  0  0  0
 28 11  1  0  0  0  0
 34 17  1  0  0  0  0
M  END
