47.3249
 OpenBabel10231816213D

 36 36  0  0  1  0  0  0  0  0999 V2000
    3.9640    1.9805   -0.0259 C   0  0  0  0  0  0  0  0  0  0  0  0
    5.0328    0.9961    0.3273 C   0  0  0  0  0  0  0  0  0  0  0  0
    3.5948    0.6111    0.4363 C   0  0  0  0  0  0  0  0  0  0  0  0
    3.0834   -0.3225   -0.5715 N   0  0  0  0  0  0  0  0  0  0  0  0
    1.6351   -0.2714   -0.7025 C   0  0  0  0  0  0  0  0  0  0  0  0
    0.8765   -1.0017    0.4267 C   0  0  0  0  0  0  0  0  0  0  0  0
   -0.6128   -1.2573    0.0478 C   0  0  1  0  0  0  0  0  0  0  0  0
   -1.1266   -2.2019    1.0788 N   0  0  0  0  0  0  0  0  0  0  0  0
   -1.4277    0.0527   -0.0560 C   0  0  0  0  0  0  0  0  0  0  0  0
   -2.8860   -0.1777   -0.4726 C   0  0  0  0  0  0  0  0  0  0  0  0
   -3.6551    1.1403   -0.6164 C   0  0  0  0  0  0  0  0  0  0  0  0
   -5.1209    0.9178   -0.9784 C   0  0  0  0  0  0  0  0  0  0  0  0
    0.9229   -0.2631    1.6355 O   0  0  0  0  0  0  0  0  0  0  0  0
    1.4877   -2.2726    0.6723 O   0  0  0  0  0  0  0  0  0  0  0  0
    3.7652    2.8073    0.6495 H   0  0  0  0  0  0  0  0  0  0  0  0
    3.8124    2.2063   -1.0747 H   0  0  0  0  0  0  0  0  0  0  0  0
    5.5922    1.1357    1.2465 H   0  0  0  0  0  0  0  0  0  0  0  0
    5.6011    0.5580   -0.4852 H   0  0  0  0  0  0  0  0  0  0  0  0
    3.1852    0.5192    1.4370 H   0  0  0  0  0  0  0  0  0  0  0  0
    3.3455   -1.2806   -0.3062 H   0  0  0  0  0  0  0  0  0  0  0  0
    1.3102    0.7690   -0.7613 H   0  0  0  0  0  0  0  0  0  0  0  0
    1.3992   -0.7613   -1.6551 H   0  0  0  0  0  0  0  0  0  0  0  0
   -0.6360   -1.7749   -0.9113 H   0  0  0  0  0  0  0  0  0  0  0  0
   -1.3107   -1.6607    1.9313 H   0  0  0  0  0  0  0  0  0  0  0  0
   -2.0120   -2.5994    0.7812 H   0  0  0  0  0  0  0  0  0  0  0  0
   -1.3970    0.5865    0.8973 H   0  0  0  0  0  0  0  0  0  0  0  0
   -0.9531    0.7108   -0.7980 H   0  0  0  0  0  0  0  0  0  0  0  0
   -3.3822   -0.8030    0.2752 H   0  0  0  0  0  0  0  0  0  0  0  0
   -2.9132   -0.7249   -1.4217 H   0  0  0  0  0  0  0  0  0  0  0  0
   -3.1839    1.7608   -1.3863 H   0  0  0  0  0  0  0  0  0  0  0  0
   -3.5966    1.6990    0.3236 H   0  0  0  0  0  0  0  0  0  0  0  0
   -5.6348    0.3261   -0.2140 H   0  0  0  0  0  0  0  0  0  0  0  0
   -5.6505    1.8756   -1.0671 H   0  0  0  0  0  0  0  0  0  0  0  0
   -5.2213    0.3948   -1.9347 H   0  0  0  0  0  0  0  0  0  0  0  0
    1.3707   -0.8752    2.2575 H   0  0  0  0  0  0  0  0  0  0  0  0
    0.7417   -2.7993    1.0152 H   0  0  0  0  0  0  0  0  0  0  0  0
  1  2  1  0  0  0  0
  1  3  1  0  0  0  0
  1 15  1  0  0  0  0
  2  3  1  0  0  0  0
  2 17  1  0  0  0  0
  3 19  1  0  0  0  0
  4 20  1  0  0  0  0
  4  3  1  0  0  0  0
  5  4  1  0  0  0  0
  5  6  1  0  0  0  0
  6 14  1  0  0  0  0
  6 13  1  0  0  0  0
  7 23  1  6  0  0  0
  7  6  1  0  0  0  0
  7  8  1  0  0  0  0
  8 24  1  0  0  0  0
  9  7  1  0  0  0  0
  9 26  1  0  0  0  0
 10  9  1  0  0  0  0
 10 28  1  0  0  0  0
 11 10  1  0  0  0  0
 11 31  1  0  0  0  0
 12 11  1  0  0  0  0
 12 32  1  0  0  0  0
 13 35  1  0  0  0  0
 14 36  1  0  0  0  0
 16  1  1  0  0  0  0
 18  2  1  0  0  0  0
 21  5  1  0  0  0  0
 22  5  1  0  0  0  0
 25  8  1  0  0  0  0
 27  9  1  0  0  0  0
 29 10  1  0  0  0  0
 30 11  1  0  0  0  0
 33 12  1  0  0  0  0
 34 12  1  0  0  0  0
M  END
