-2.01357
 OpenBabel10231816213D

 66 68  0  0  1  0  0  0  0  0999 V2000
    0.8052    1.1158    0.4806 C   0  0  2  0  0  0  0  0  0  0  0  0
    1.4126    0.2104   -0.6208 C   0  0  0  0  0  0  0  0  0  0  0  0
    0.5856   -1.0207   -0.9234 C   0  0  0  0  0  0  0  0  0  0  0  0
    0.2480   -1.9158    0.0976 C   0  0  0  0  0  0  0  0  0  0  0  0
   -0.7133   -2.9072   -0.1126 C   0  0  0  0  0  0  0  0  0  0  0  0
   -1.3173   -3.0282   -1.3565 C   0  0  0  0  0  0  0  0  0  0  0  0
   -0.8768   -2.2487   -2.4243 C   0  0  0  0  0  0  0  0  0  0  0  0
    0.0632   -1.2362   -2.2039 C   0  0  0  0  0  0  0  0  0  0  0  0
   -2.3809   -3.8631   -1.5748 O   0  0  0  0  0  0  0  0  0  0  0  0
   -3.5508   -3.4778   -0.8211 C   0  0  0  0  0  0  0  0  0  0  0  0
   -4.0460   -2.0692   -1.1945 C   0  0  0  0  0  0  0  0  0  0  0  0
   -4.9992   -1.4679   -0.1658 C   0  0  0  0  0  0  0  0  0  0  0  0
   -4.4077   -1.4685    1.2273 C   0  0  0  0  0  0  0  0  0  0  0  0
   -4.6440   -2.4112    2.0051 O   0  0  0  0  0  0  0  0  0  0  0  0
   -3.5727   -0.4830    1.6301 N   0  0  0  0  0  0  0  0  0  0  0  0
   -2.9810    0.6376    0.8756 C   0  0  2  0  0  0  0  0  0  0  0  0
   -1.4888    0.6191    1.2351 C   0  0  0  0  0  0  0  0  0  0  0  0
   -1.0807    0.0771    2.2777 O   0  0  0  0  0  0  0  0  0  0  0  0
   -0.6433    1.2382    0.3595 N   0  0  0  0  0  0  0  0  0  0  0  0
   -3.6450    1.9397    1.2907 C   0  0  0  0  0  0  0  0  0  0  0  0
   -3.2531    3.0858    0.3819 C   0  0  0  0  0  0  0  0  0  0  0  0
   -2.6312    2.9563   -0.6611 O   0  0  0  0  0  0  0  0  0  0  0  0
   -3.6757    4.3153    0.8065 N   0  0  0  0  0  0  0  0  0  0  0  0
    1.4177    2.5285    0.5172 C   0  0  2  0  0  0  0  0  0  0  0  0
    0.9792    3.3096   -0.6073 O   0  0  0  0  0  0  0  0  0  0  0  0
    2.9498    2.5200    0.5871 C   0  0  0  0  0  0  0  0  0  0  0  0
    3.4086    1.7343    1.7362 N   0  0  0  0  0  0  0  0  0  0  0  0
    5.0009    1.1759    1.7380 S   0  0  0  0  0  0  0  0  0  0  0  0
    5.1538    0.4596    2.9788 O   0  0  0  0  0  0  0  0  0  0  0  0
    5.8372    2.3103    1.4040 O   0  0  0  0  0  0  0  0  0  0  0  0
    5.0584    0.0267    0.3996 C   0  0  0  0  0  0  0  0  0  0  0  0
    5.6350    0.4170   -0.8094 C   0  0  0  0  0  0  0  0  0  0  0  0
    5.6324   -0.4623   -1.8914 C   0  0  0  0  0  0  0  0  0  0  0  0
    5.0597   -1.7275   -1.7592 C   0  0  0  0  0  0  0  0  0  0  0  0
    4.5078   -2.1218   -0.5375 C   0  0  0  0  0  0  0  0  0  0  0  0
    4.5218   -1.2484    0.5520 C   0  0  0  0  0  0  0  0  0  0  0  0
    1.0045    0.6351    1.4468 H   0  0  0  0  0  0  0  0  0  0  0  0
    1.5669    0.7858   -1.5416 H   0  0  0  0  0  0  0  0  0  0  0  0
    2.4009   -0.1113   -0.2917 H   0  0  0  0  0  0  0  0  0  0  0  0
    0.6829   -1.7954    1.0877 H   0  0  0  0  0  0  0  0  0  0  0  0
   -1.0128   -3.5573    0.7016 H   0  0  0  0  0  0  0  0  0  0  0  0
   -1.3231   -2.3815   -3.4061 H   0  0  0  0  0  0  0  0  0  0  0  0
    0.3561   -0.5924   -3.0294 H   0  0  0  0  0  0  0  0  0  0  0  0
   -4.3229   -4.2231   -1.0581 H   0  0  0  0  0  0  0  0  0  0  0  0
   -3.3513   -3.5616    0.2502 H   0  0  0  0  0  0  0  0  0  0  0  0
   -4.5252   -2.1005   -2.1817 H   0  0  0  0  0  0  0  0  0  0  0  0
   -3.1889   -1.4055   -1.3096 H   0  0  0  0  0  0  0  0  0  0  0  0
   -5.2844   -0.4491   -0.4594 H   0  0  0  0  0  0  0  0  0  0  0  0
   -5.9246   -2.0589   -0.1289 H   0  0  0  0  0  0  0  0  0  0  0  0
   -3.1025   -0.6806    2.5156 H   0  0  0  0  0  0  0  0  0  0  0  0
   -3.1015    0.4668   -0.1942 H   0  0  0  0  0  0  0  0  0  0  0  0
   -1.0092    1.8744   -0.3549 H   0  0  0  0  0  0  0  0  0  0  0  0
   -4.7312    1.8172    1.2140 H   0  0  0  0  0  0  0  0  0  0  0  0
   -3.4146    2.1836    2.3326 H   0  0  0  0  0  0  0  0  0  0  0  0
   -3.5151    5.1168    0.2041 H   0  0  0  0  0  0  0  0  0  0  0  0
   -4.2865    4.4318    1.6031 H   0  0  0  0  0  0  0  0  0  0  0  0
    1.0114    3.0382    1.3983 H   0  0  0  0  0  0  0  0  0  0  0  0
    1.4775    3.0309   -1.3925 H   0  0  0  0  0  0  0  0  0  0  0  0
    3.3536    2.0958   -0.3341 H   0  0  0  0  0  0  0  0  0  0  0  0
    3.3043    3.5525    0.6518 H   0  0  0  0  0  0  0  0  0  0  0  0
    3.2401    2.1735    2.6446 H   0  0  0  0  0  0  0  0  0  0  0  0
    6.0714    1.4091   -0.9063 H   0  0  0  0  0  0  0  0  0  0  0  0
    6.0742   -0.1591   -2.8373 H   0  0  0  0  0  0  0  0  0  0  0  0
    5.0495   -2.4124   -2.6054 H   0  0  0  0  0  0  0  0  0  0  0  0
    4.0546   -3.1054   -0.4353 H   0  0  0  0  0  0  0  0  0  0  0  0
    4.0764   -1.5376    1.4991 H   0  0  0  0  0  0  0  0  0  0  0  0
  1 24  1  0  0  0  0
  1 37  1  1  0  0  0
  2 39  1  0  0  0  0
  2  1  1  0  0  0  0
  3  2  1  0  0  0  0
  3  4  2  0  0  0  0
  4 40  1  0  0  0  0
  5  4  1  0  0  0  0
  5 41  1  0  0  0  0
  6  5  2  0  0  0  0
  7  8  2  0  0  0  0
  7  6  1  0  0  0  0
  8  3  1  0  0  0  0
  9  6  1  0  0  0  0
  9 10  1  0  0  0  0
 10 45  1  0  0  0  0
 11 10  1  0  0  0  0
 11 12  1  0  0  0  0
 12 49  1  0  0  0  0
 12 13  1  0  0  0  0
 13 15  1  0  0  0  0
 13 14  2  0  0  0  0
 15 50  1  0  0  0  0
 16 51  1  6  0  0  0
 16 17  1  0  0  0  0
 16 20  1  0  0  0  0
 16 15  1  0  0  0  0
 17 18  2  0  0  0  0
 19  1  1  0  0  0  0
 19 17  1  0  0  0  0
 20 54  1  0  0  0  0
 21 23  1  0  0  0  0
 21 20  1  0  0  0  0
 22 21  2  0  0  0  0
 23 56  1  0  0  0  0
 24 26  1  0  0  0  0
 24 57  1  1  0  0  0
 25 24  1  0  0  0  0
 26 60  1  0  0  0  0
 26 27  1  0  0  0  0
 27 28  1  0  0  0  0
 27 61  1  0  0  0  0
 28 29  2  0  0  0  0
 30 28  2  0  0  0  0
 31 36  1  0  0  0  0
 31 28  1  0  0  0  0
 32 31  2  0  0  0  0
 33 34  2  0  0  0  0
 33 32  1  0  0  0  0
 34 35  1  0  0  0  0
 35 65  1  0  0  0  0
 35 36  2  0  0  0  0
 36 66  1  0  0  0  0
 38  2  1  0  0  0  0
 42  7  1  0  0  0  0
 43  8  1  0  0  0  0
 44 10  1  0  0  0  0
 46 11  1  0  0  0  0
 47 11  1  0  0  0  0
 48 12  1  0  0  0  0
 52 19  1  0  0  0  0
 53 20  1  0  0  0  0
 55 23  1  0  0  0  0
 58 25  1  0  0  0  0
 59 26  1  0  0  0  0
 62 32  1  0  0  0  0
 63 33  1  0  0  0  0
 64 34  1  0  0  0  0
M  END
