44.5992
 OpenBabel10231816213D

 25 25  0  0  1  0  0  0  0  0999 V2000
   -1.9337   -3.2258   -1.9636 O   0  0  0  0  0  0  0  0  0  0  0  0
   -1.0623   -2.6210   -1.1104 C   0  0  0  0  0  0  0  0  0  0  0  0
    0.0109   -3.1280   -0.8179 O   0  0  0  0  0  0  0  0  0  0  0  0
   -1.5469   -1.3398   -0.5905 C   0  0  0  0  0  0  0  0  0  0  0  0
   -2.7651   -0.8851   -0.9442 N   0  0  0  0  0  0  0  0  0  0  0  0
   -2.9201    0.3323   -0.3044 O   0  0  0  0  0  0  0  0  0  0  0  0
   -1.8078    0.6096    0.4210 C   0  0  0  0  0  0  0  0  0  0  0  0
   -0.8924   -0.4084    0.2671 C   0  0  0  0  0  0  0  0  0  0  0  0
    0.4965   -0.4463    0.8153 C   0  0  0  0  0  0  0  0  0  0  0  0
    1.4097    0.5435    0.0690 C   0  0  2  0  0  0  0  0  0  0  0  0
    1.5861    0.1377   -1.3421 N   0  0  0  0  0  0  0  0  0  0  0  0
    2.7563    0.6692    0.7726 C   0  0  0  0  0  0  0  0  0  0  0  0
    3.0000    0.4205    1.9388 O   0  0  0  0  0  0  0  0  0  0  0  0
    3.7061    1.2392   -0.0137 O   0  0  0  0  0  0  0  0  0  0  0  0
   -1.7805    1.8949    1.1500 C   0  0  0  0  0  0  0  0  0  0  0  0
   -2.7332   -2.6657   -2.0537 H   0  0  0  0  0  0  0  0  0  0  0  0
    0.4566   -0.1959    1.8828 H   0  0  0  0  0  0  0  0  0  0  0  0
    0.9159   -1.4574    0.7695 H   0  0  0  0  0  0  0  0  0  0  0  0
    0.9676    1.5491    0.0869 H   0  0  0  0  0  0  0  0  0  0  0  0
    2.2376    0.7895   -1.7847 H   0  0  0  0  0  0  0  0  0  0  0  0
    0.7008    0.2197   -1.8408 H   0  0  0  0  0  0  0  0  0  0  0  0
    4.4937    1.2711    0.5633 H   0  0  0  0  0  0  0  0  0  0  0  0
   -0.9736    1.9012    1.8912 H   0  0  0  0  0  0  0  0  0  0  0  0
   -1.6020    2.7248    0.4593 H   0  0  0  0  0  0  0  0  0  0  0  0
   -2.7203    2.0709    1.6792 H   0  0  0  0  0  0  0  0  0  0  0  0
  1  2  1  0  0  0  0
  2  3  2  0  0  0  0
  2  4  1  0  0  0  0
  4  8  1  0  0  0  0
  5  4  2  0  0  0  0
  5  6  1  0  0  0  0
  6  7  1  0  0  0  0
  7 15  1  0  0  0  0
  8  7  2  0  0  0  0
  8  9  1  0  0  0  0
  9 17  1  0  0  0  0
 10 19  1  1  0  0  0
 10 12  1  0  0  0  0
 10  9  1  0  0  0  0
 11 10  1  0  0  0  0
 12 13  2  0  0  0  0
 14 22  1  0  0  0  0
 14 12  1  0  0  0  0
 15 25  1  0  0  0  0
 15 23  1  0  0  0  0
 16  1  1  0  0  0  0
 18  9  1  0  0  0  0
 20 11  1  0  0  0  0
 21 11  1  0  0  0  0
 24 15  1  0  0  0  0
M  END
