-40.5163
 OpenBabel10231816213D

 24 23  0  0  1  0  0  0  0  0999 V2000
   -0.4577   -1.1494   -0.3683 C   0  0  2  0  0  0  0  0  0  0  0  0
   -1.1525   -2.0644    0.6347 C   0  0  0  0  0  0  0  0  0  0  0  0
   -2.1611   -1.7905    1.2745 O   0  0  0  0  0  0  0  0  0  0  0  0
   -0.5873   -3.2843    0.7243 O   0  0  0  0  0  0  0  0  0  0  0  0
    1.0401   -1.0040   -0.0694 C   0  0  0  0  0  0  0  0  0  0  0  0
    1.3604   -0.0602    1.0936 C   0  0  0  0  0  0  0  0  0  0  0  0
    2.6207    0.7381    0.8716 C   0  0  0  0  0  0  0  0  0  0  0  0
    3.5400    0.7725    1.6760 O   0  0  0  0  0  0  0  0  0  0  0  0
    2.6199    1.4763   -0.2599 O   0  0  0  0  0  0  0  0  0  0  0  0
   -1.2164    0.1085   -0.4000 N   0  0  0  0  0  0  0  0  0  0  0  0
   -0.8371    1.2262   -1.0941 C   0  0  0  0  0  0  0  0  0  0  0  0
    0.2661    1.3364   -1.6233 O   0  0  0  0  0  0  0  0  0  0  0  0
   -1.8413    2.3451   -1.0594 C   0  0  0  0  0  0  0  0  0  0  0  0
   -0.5827   -1.6081   -1.3570 H   0  0  0  0  0  0  0  0  0  0  0  0
   -1.1397   -3.7743    1.3682 H   0  0  0  0  0  0  0  0  0  0  0  0
    1.4806   -1.9872    0.1477 H   0  0  0  0  0  0  0  0  0  0  0  0
    1.5506   -0.6874   -0.9872 H   0  0  0  0  0  0  0  0  0  0  0  0
    1.4885   -0.6444    2.0120 H   0  0  0  0  0  0  0  0  0  0  0  0
    0.5632    0.6615    1.2977 H   0  0  0  0  0  0  0  0  0  0  0  0
    1.8059    1.4016   -0.8156 H   0  0  0  0  0  0  0  0  0  0  0  0
   -2.1018    0.1105    0.1023 H   0  0  0  0  0  0  0  0  0  0  0  0
   -2.8417    1.9747   -1.3051 H   0  0  0  0  0  0  0  0  0  0  0  0
   -1.8543    2.8007   -0.0654 H   0  0  0  0  0  0  0  0  0  0  0  0
   -1.5623    3.1019   -1.7978 H   0  0  0  0  0  0  0  0  0  0  0  0
  1 14  1  6  0  0  0
  1  5  1  0  0  0  0
  1  2  1  0  0  0  0
  2  4  1  0  0  0  0
  2  3  2  0  0  0  0
  4 15  1  0  0  0  0
  5 16  1  0  0  0  0
  5  6  1  0  0  0  0
  6 19  1  0  0  0  0
  6 18  1  0  0  0  0
  7  6  1  0  0  0  0
  7  8  2  0  0  0  0
  9  7  1  0  0  0  0
 10  1  1  0  0  0  0
 10 21  1  0  0  0  0
 11 13  1  0  0  0  0
 11 10  1  0  0  0  0
 12 11  2  0  0  0  0
 13 23  1  0  0  0  0
 17  5  1  0  0  0  0
 20  9  1  0  0  0  0
 22 13  1  0  0  0  0
 24 13  1  0  0  0  0
M  END
