126.42
 OpenBabel10231816213D

 34 35  0  0  1  0  0  0  0  0999 V2000
   -1.1484   -0.7779   -0.2069 C   0  0  1  0  0  0  0  0  0  0  0  0
    0.2500   -0.4981    0.1065 N   0  0  0  0  0  0  0  0  0  0  0  0
    1.0260    0.1285   -0.9555 C   0  0  0  0  0  0  0  0  0  0  0  0
    2.4786    0.2885   -0.5660 C   0  0  0  0  0  0  0  0  0  0  0  0
    3.0985   -0.6041    0.3241 C   0  0  0  0  0  0  0  0  0  0  0  0
    4.4425   -0.4540    0.6613 C   0  0  0  0  0  0  0  0  0  0  0  0
    5.1932    0.5702    0.0925 C   0  0  0  0  0  0  0  0  0  0  0  0
    4.5972    1.4500   -0.8110 C   0  0  0  0  0  0  0  0  0  0  0  0
    3.2474    1.3117   -1.1422 C   0  0  0  0  0  0  0  0  0  0  0  0
   -1.8722   -1.2724    1.0743 C   0  0  1  0  0  0  0  0  0  0  0  0
   -1.5642   -0.4195    2.1930 O   0  0  0  0  0  0  0  0  0  0  0  0
   -3.3378   -1.1573    0.6493 C   0  0  1  0  0  0  0  0  0  0  0  0
   -4.2523   -1.2792    1.7282 O   0  0  0  0  0  0  0  0  0  0  0  0
   -3.3965    0.2371    0.0088 C   0  0  1  0  0  0  0  0  0  0  0  0
   -3.5173    1.2024    1.0771 O   0  0  0  0  0  0  0  0  0  0  0  0
   -2.0189    0.4243   -0.6688 C   0  0  2  0  0  0  0  0  0  0  0  0
   -2.1661    0.5603   -2.4871 S   0  0  0  0  0  0  0  0  0  0  0  0
   -1.1924   -1.5891   -0.9459 H   0  0  0  0  0  0  0  0  0  0  0  0
    0.3085    0.0541    0.9673 H   0  0  0  0  0  0  0  0  0  0  0  0
    0.9846   -0.4822   -1.8658 H   0  0  0  0  0  0  0  0  0  0  0  0
    0.6172    1.1195   -1.1801 H   0  0  0  0  0  0  0  0  0  0  0  0
    2.5313   -1.4122    0.7778 H   0  0  0  0  0  0  0  0  0  0  0  0
    4.9037   -1.1446    1.3628 H   0  0  0  0  0  0  0  0  0  0  0  0
    6.2441    0.6801    0.3513 H   0  0  0  0  0  0  0  0  0  0  0  0
    5.1869    2.2473   -1.2570 H   0  0  0  0  0  0  0  0  0  0  0  0
    2.8020    2.0045   -1.8542 H   0  0  0  0  0  0  0  0  0  0  0  0
   -1.5947   -2.2924    1.3514 H   0  0  0  0  0  0  0  0  0  0  0  0
   -2.1146    0.3857    2.1302 H   0  0  0  0  0  0  0  0  0  0  0  0
   -3.5712   -1.9276   -0.0961 H   0  0  0  0  0  0  0  0  0  0  0  0
   -4.1868   -0.4447    2.2318 H   0  0  0  0  0  0  0  0  0  0  0  0
   -4.2677    0.3533   -0.6396 H   0  0  0  0  0  0  0  0  0  0  0  0
   -3.6102    2.0791    0.6534 H   0  0  0  0  0  0  0  0  0  0  0  0
   -1.5748    1.3670   -0.3271 H   0  0  0  0  0  0  0  0  0  0  0  0
   -2.5255   -0.7080   -2.7375 H   0  0  0  0  0  0  0  0  0  0  0  0
  1 18  1  6  0  0  0
  1  2  1  0  0  0  0
  1 10  1  0  0  0  0
  2 19  1  0  0  0  0
  3  4  1  0  0  0  0
  3  2  1  0  0  0  0
  4  5  2  0  0  0  0
  5  6  1  0  0  0  0
  5 22  1  0  0  0  0
  6 23  1  0  0  0  0
  7 24  1  0  0  0  0
  7  6  2  0  0  0  0
  8  7  1  0  0  0  0
  9  8  2  0  0  0  0
  9  4  1  0  0  0  0
 10 27  1  1  0  0  0
 10 11  1  0  0  0  0
 12 29  1  6  0  0  0
 12 10  1  0  0  0  0
 12 13  1  0  0  0  0
 13 30  1  0  0  0  0
 14 31  1  6  0  0  0
 14 12  1  0  0  0  0
 14 15  1  0  0  0  0
 16 33  1  1  0  0  0
 16  1  1  0  0  0  0
 16 14  1  0  0  0  0
 17 16  1  0  0  0  0
 20  3  1  0  0  0  0
 21  3  1  0  0  0  0
 25  8  1  0  0  0  0
 26  9  1  0  0  0  0
 28 11  1  0  0  0  0
 32 15  1  0  0  0  0
 34 17  1  0  0  0  0
M  END
