42.2368
 OpenBabel10231816213D

 25 25  0  0  1  0  0  0  0  0999 V2000
   -1.5655   -3.6943   -0.5899 O   0  0  0  0  0  0  0  0  0  0  0  0
   -0.7553   -2.6067   -0.6949 C   0  0  0  0  0  0  0  0  0  0  0  0
    0.4318   -2.7134   -0.9814 O   0  0  0  0  0  0  0  0  0  0  0  0
   -1.4148   -1.3368   -0.4174 C   0  0  0  0  0  0  0  0  0  0  0  0
   -2.7140   -1.3072   -0.0655 N   0  0  0  0  0  0  0  0  0  0  0  0
   -3.0172    0.0276    0.1502 O   0  0  0  0  0  0  0  0  0  0  0  0
   -1.9136    0.7895   -0.0721 C   0  0  0  0  0  0  0  0  0  0  0  0
   -0.8627   -0.0241   -0.4338 C   0  0  0  0  0  0  0  0  0  0  0  0
    0.5496    0.3811   -0.7141 C   0  0  0  0  0  0  0  0  0  0  0  0
    1.4940    0.0458    0.4503 C   0  0  2  0  0  0  0  0  0  0  0  0
    1.0774    0.7753    1.6761 N   0  0  0  0  0  0  0  0  0  0  0  0
    2.9436    0.4019    0.1160 C   0  0  0  0  0  0  0  0  0  0  0  0
    3.7604    0.8767    0.8922 O   0  0  0  0  0  0  0  0  0  0  0  0
    3.3248    0.0373   -1.1220 O   0  0  0  0  0  0  0  0  0  0  0  0
   -2.0536    2.2442    0.1409 C   0  0  0  0  0  0  0  0  0  0  0  0
   -2.4650   -3.3915   -0.3446 H   0  0  0  0  0  0  0  0  0  0  0  0
    0.8759   -0.1078   -1.6392 H   0  0  0  0  0  0  0  0  0  0  0  0
    0.5986    1.4582   -0.9249 H   0  0  0  0  0  0  0  0  0  0  0  0
    1.4833   -1.0277    0.6705 H   0  0  0  0  0  0  0  0  0  0  0  0
    1.8692    0.7796    2.3261 H   0  0  0  0  0  0  0  0  0  0  0  0
    0.3313    0.2556    2.1359 H   0  0  0  0  0  0  0  0  0  0  0  0
    4.2816    0.2495   -1.1475 H   0  0  0  0  0  0  0  0  0  0  0  0
   -2.9207    2.6362   -0.3982 H   0  0  0  0  0  0  0  0  0  0  0  0
   -2.1698    2.4695    1.2053 H   0  0  0  0  0  0  0  0  0  0  0  0
   -1.1694    2.7814   -0.2180 H   0  0  0  0  0  0  0  0  0  0  0  0
  1 16  1  0  0  0  0
  2  1  1  0  0  0  0
  2  4  1  0  0  0  0
  3  2  2  0  0  0  0
  4  5  2  0  0  0  0
  5  6  1  0  0  0  0
  7 15  1  0  0  0  0
  7  6  1  0  0  0  0
  8  4  1  0  0  0  0
  8  7  2  0  0  0  0
  9  8  1  0  0  0  0
  9 10  1  0  0  0  0
 10 19  1  1  0  0  0
 10 11  1  0  0  0  0
 11 21  1  0  0  0  0
 11 20  1  0  0  0  0
 12 10  1  0  0  0  0
 12 13  2  0  0  0  0
 14 12  1  0  0  0  0
 15 24  1  0  0  0  0
 17  9  1  0  0  0  0
 18  9  1  0  0  0  0
 22 14  1  0  0  0  0
 23 15  1  0  0  0  0
 25 15  1  0  0  0  0
M  END
