60.1908
 OpenBabel10231816213D

 40 42  0  0  0  0  0  0  0  0999 V2000
    6.3103    0.1867    2.1382 O   0  0  0  0  0  0  0  0  0  0  0  0
    5.1372    0.4803    2.3826 C   0  0  0  0  0  0  0  0  0  0  0  0
    4.7130    0.9531    3.7469 C   0  0  0  0  0  0  0  0  0  0  0  0
    4.1046    0.3748    1.3119 C   0  0  0  0  0  0  0  0  0  0  0  0
    2.7645    0.7001    1.5292 C   0  0  0  0  0  0  0  0  0  0  0  0
    1.8321    0.5702    0.4976 C   0  0  0  0  0  0  0  0  0  0  0  0
    2.2190    0.0848   -0.7503 C   0  0  0  0  0  0  0  0  0  0  0  0
    3.5665   -0.1883   -0.9948 C   0  0  0  0  0  0  0  0  0  0  0  0
    4.5023   -0.0645    0.0364 C   0  0  0  0  0  0  0  0  0  0  0  0
    1.3019   -0.1331   -1.7833 N   0  0  0  0  0  0  0  0  0  0  0  0
    0.0018   -0.5808   -1.7370 C   0  0  0  0  0  0  0  0  0  0  0  0
   -0.6583   -0.5455   -2.7758 O   0  0  0  0  0  0  0  0  0  0  0  0
   -0.5655   -1.1379   -0.5099 C   0  0  0  0  0  0  0  0  0  0  0  0
    0.0151   -1.9269    0.5137 C   0  0  0  0  0  0  0  0  0  0  0  0
   -0.8558   -2.2561    1.4719 N   0  0  0  0  0  0  0  0  0  0  0  0
   -2.0036   -1.7036    1.0574 N   0  0  0  0  0  0  0  0  0  0  0  0
   -1.8950   -1.0266   -0.1293 C   0  0  0  0  0  0  0  0  0  0  0  0
   -3.0221   -0.3185   -0.7393 C   0  0  0  0  0  0  0  0  0  0  0  0
   -2.9688    1.0810   -0.8557 C   0  0  0  0  0  0  0  0  0  0  0  0
   -4.0397    1.7851   -1.4112 C   0  0  0  0  0  0  0  0  0  0  0  0
   -3.9588    3.5042   -1.5248 Cl  0  0  0  0  0  0  0  0  0  0  0  0
   -5.1713    1.1010   -1.8553 C   0  0  0  0  0  0  0  0  0  0  0  0
   -6.2528    1.7451   -2.3912 O   0  0  0  0  0  0  0  0  0  0  0  0
   -5.2353   -0.2835   -1.7552 C   0  0  0  0  0  0  0  0  0  0  0  0
   -4.1665   -0.9883   -1.2022 C   0  0  0  0  0  0  0  0  0  0  0  0
   -4.3127   -2.3476   -1.1389 O   0  0  0  0  0  0  0  0  0  0  0  0
    5.5838    0.9762    4.4109 H   0  0  0  0  0  0  0  0  0  0  0  0
    4.3083    1.9666    3.6857 H   0  0  0  0  0  0  0  0  0  0  0  0
    3.9790    0.2674    4.1748 H   0  0  0  0  0  0  0  0  0  0  0  0
    2.4118    1.0564    2.4924 H   0  0  0  0  0  0  0  0  0  0  0  0
    0.8036    0.8688    0.6855 H   0  0  0  0  0  0  0  0  0  0  0  0
    3.8951   -0.5591   -1.9632 H   0  0  0  0  0  0  0  0  0  0  0  0
    5.5439   -0.3224   -0.1476 H   0  0  0  0  0  0  0  0  0  0  0  0
    1.6189    0.0236   -2.7356 H   0  0  0  0  0  0  0  0  0  0  0  0
    1.0397   -2.2709    0.6234 H   0  0  0  0  0  0  0  0  0  0  0  0
   -2.8332   -1.8243    1.6329 H   0  0  0  0  0  0  0  0  0  0  0  0
   -2.0955    1.6276   -0.5073 H   0  0  0  0  0  0  0  0  0  0  0  0
   -6.0568    2.7005   -2.3963 H   0  0  0  0  0  0  0  0  0  0  0  0
   -6.1132   -0.8153   -2.1094 H   0  0  0  0  0  0  0  0  0  0  0  0
   -3.4474   -2.7604   -0.9775 H   0  0  0  0  0  0  0  0  0  0  0  0
  1  2  2  0  0  0  0
  2  3  1  0  0  0  0
  3 29  1  0  0  0  0
  3 27  1  0  0  0  0
  4  5  1  0  0  0  0
  4  2  1  0  0  0  0
  5 30  1  0  0  0  0
  6 31  1  0  0  0  0
  6  5  2  0  0  0  0
  7  6  1  0  0  0  0
  8  7  2  0  0  0  0
  8  9  1  0  0  0  0
  9  4  2  0  0  0  0
 10 11  1  0  0  0  0
 10  7  1  0  0  0  0
 11 13  1  0  0  0  0
 12 11  2  0  0  0  0
 13 17  2  0  0  0  0
 13 14  1  0  0  0  0
 14 35  1  0  0  0  0
 14 15  2  0  0  0  0
 16 15  1  0  0  0  0
 16 36  1  0  0  0  0
 17 16  1  0  0  0  0
 18 17  1  0  0  0  0
 19 18  1  0  0  0  0
 19 37  1  0  0  0  0
 20 19  2  0  0  0  0
 21 20  1  0  0  0  0
 22 24  2  0  0  0  0
 22 20  1  0  0  0  0
 23 22  1  0  0  0  0
 24 25  1  0  0  0  0
 25 26  1  0  0  0  0
 25 18  2  0  0  0  0
 26 40  1  0  0  0  0
 28  3  1  0  0  0  0
 32  8  1  0  0  0  0
 33  9  1  0  0  0  0
 34 10  1  0  0  0  0
 38 23  1  0  0  0  0
 39 24  1  0  0  0  0
M  END
