-36.1791
 OpenBabel10231816213D

 24 23  0  0  1  0  0  0  0  0999 V2000
   -0.1683   -0.9617   -0.0583 C   0  0  2  0  0  0  0  0  0  0  0  0
   -1.3288   -1.8755    0.3648 C   0  0  0  0  0  0  0  0  0  0  0  0
   -2.4904   -1.7973   -0.0132 O   0  0  0  0  0  0  0  0  0  0  0  0
   -0.9360   -2.8990    1.1468 O   0  0  0  0  0  0  0  0  0  0  0  0
    0.7288   -0.5641    1.1245 C   0  0  0  0  0  0  0  0  0  0  0  0
    1.8244    0.4331    0.7444 C   0  0  0  0  0  0  0  0  0  0  0  0
    2.7997   -0.1295   -0.2651 C   0  0  0  0  0  0  0  0  0  0  0  0
    2.8308   -1.2899   -0.6507 O   0  0  0  0  0  0  0  0  0  0  0  0
    3.6756    0.7938   -0.7139 O   0  0  0  0  0  0  0  0  0  0  0  0
   -0.6947    0.1726   -0.8246 N   0  0  0  0  0  0  0  0  0  0  0  0
   -1.4956    1.1216   -0.2247 C   0  0  0  0  0  0  0  0  0  0  0  0
   -1.6129    1.2431    0.9900 O   0  0  0  0  0  0  0  0  0  0  0  0
   -2.2553    1.9827   -1.1939 C   0  0  0  0  0  0  0  0  0  0  0  0
    0.4104   -1.5524   -0.7770 H   0  0  0  0  0  0  0  0  0  0  0  0
   -1.7530   -3.4143    1.3063 H   0  0  0  0  0  0  0  0  0  0  0  0
    1.1854   -1.4677    1.5498 H   0  0  0  0  0  0  0  0  0  0  0  0
    0.1256   -0.1369    1.9340 H   0  0  0  0  0  0  0  0  0  0  0  0
    2.3914    0.7024    1.6423 H   0  0  0  0  0  0  0  0  0  0  0  0
    1.3752    1.3440    0.3341 H   0  0  0  0  0  0  0  0  0  0  0  0
    3.5492    1.6801   -0.3174 H   0  0  0  0  0  0  0  0  0  0  0  0
   -0.8205    0.0176   -1.8172 H   0  0  0  0  0  0  0  0  0  0  0  0
   -2.5196    2.9252   -0.7061 H   0  0  0  0  0  0  0  0  0  0  0  0
   -3.1704    1.4667   -1.4981 H   0  0  0  0  0  0  0  0  0  0  0  0
   -1.6512    2.2052   -2.0771 H   0  0  0  0  0  0  0  0  0  0  0  0
  1 14  1  6  0  0  0
  1  2  1  0  0  0  0
  1  5  1  0  0  0  0
  2  4  1  0  0  0  0
  3  2  2  0  0  0  0
  4 15  1  0  0  0  0
  5 16  1  0  0  0  0
  5 17  1  0  0  0  0
  6  5  1  0  0  0  0
  6 18  1  0  0  0  0
  7  6  1  0  0  0  0
  8  7  2  0  0  0  0
  9 20  1  0  0  0  0
  9  7  1  0  0  0  0
 10 11  1  0  0  0  0
 10  1  1  0  0  0  0
 11 12  2  0  0  0  0
 13 22  1  0  0  0  0
 13 11  1  0  0  0  0
 19  6  1  0  0  0  0
 21 10  1  0  0  0  0
 23 13  1  0  0  0  0
 24 13  1  0  0  0  0
M  END
