-45.8156
 OpenBabel10231816213D

 24 23  0  0  1  0  0  0  0  0999 V2000
   -0.2579   -0.8367    0.1057 C   0  0  2  0  0  0  0  0  0  0  0  0
   -1.1229   -2.0642    0.3440 C   0  0  0  0  0  0  0  0  0  0  0  0
   -2.3107   -2.0592    0.6288 O   0  0  0  0  0  0  0  0  0  0  0  0
   -0.4433   -3.2168    0.2272 O   0  0  0  0  0  0  0  0  0  0  0  0
    0.6660   -0.6068    1.3077 C   0  0  0  0  0  0  0  0  0  0  0  0
    1.7354    0.4517    1.0574 C   0  0  0  0  0  0  0  0  0  0  0  0
    2.7835   -0.0456    0.0971 C   0  0  0  0  0  0  0  0  0  0  0  0
    3.7590   -0.6901    0.4488 O   0  0  0  0  0  0  0  0  0  0  0  0
    2.5277    0.2321   -1.2008 O   0  0  0  0  0  0  0  0  0  0  0  0
   -1.1503    0.3053   -0.1151 N   0  0  0  0  0  0  0  0  0  0  0  0
   -0.9186    1.2544   -1.0745 C   0  0  0  0  0  0  0  0  0  0  0  0
    0.1445    1.3256   -1.6873 O   0  0  0  0  0  0  0  0  0  0  0  0
   -2.0501    2.2365   -1.2491 C   0  0  0  0  0  0  0  0  0  0  0  0
    0.3085   -1.0146   -0.8146 H   0  0  0  0  0  0  0  0  0  0  0  0
   -1.1003   -3.9245    0.3973 H   0  0  0  0  0  0  0  0  0  0  0  0
    0.0675   -0.3103    2.1794 H   0  0  0  0  0  0  0  0  0  0  0  0
    1.1551   -1.5514    1.5811 H   0  0  0  0  0  0  0  0  0  0  0  0
    1.3184    1.4030    0.7130 H   0  0  0  0  0  0  0  0  0  0  0  0
    2.2483    0.6811    1.9998 H   0  0  0  0  0  0  0  0  0  0  0  0
    1.6959    0.7368   -1.3829 H   0  0  0  0  0  0  0  0  0  0  0  0
   -2.0659    0.2561    0.3228 H   0  0  0  0  0  0  0  0  0  0  0  0
   -1.9291    2.7814   -2.1891 H   0  0  0  0  0  0  0  0  0  0  0  0
   -2.0516    2.9455   -0.4168 H   0  0  0  0  0  0  0  0  0  0  0  0
   -3.0090    1.7109   -1.2800 H   0  0  0  0  0  0  0  0  0  0  0  0
  1 14  1  6  0  0  0
  1  2  1  0  0  0  0
  1  5  1  0  0  0  0
  2  3  2  0  0  0  0
  4  2  1  0  0  0  0
  4 15  1  0  0  0  0
  5 17  1  0  0  0  0
  5 16  1  0  0  0  0
  6  5  1  0  0  0  0
  6 19  1  0  0  0  0
  7  8  2  0  0  0  0
  7  6  1  0  0  0  0
  9  7  1  0  0  0  0
 10  1  1  0  0  0  0
 10 21  1  0  0  0  0
 11 10  1  0  0  0  0
 12 11  2  0  0  0  0
 13 11  1  0  0  0  0
 13 23  1  0  0  0  0
 18  6  1  0  0  0  0
 20  9  1  0  0  0  0
 22 13  1  0  0  0  0
 24 13  1  0  0  0  0
M  END
