40.0056
 OpenBabel10231816213D

 61 65  0  0  0  0  0  0  0  0999 V2000
    8.8951    1.1927   -2.1022 N   0  0  0  0  0  0  0  0  0  0  0  0
    8.4858   -0.0599   -1.8202 C   0  0  0  0  0  0  0  0  0  0  0  0
    7.2504   -0.3658   -1.2709 C   0  0  0  0  0  0  0  0  0  0  0  0
    6.3544    0.6629   -0.9631 C   0  0  0  0  0  0  0  0  0  0  0  0
    6.7741    1.9663   -1.2506 C   0  0  0  0  0  0  0  0  0  0  0  0
    8.0230    2.1775   -1.8126 C   0  0  0  0  0  0  0  0  0  0  0  0
    5.1121    0.4031   -0.4045 N   0  0  0  0  0  0  0  0  0  0  0  0
    4.8462   -0.8541    0.2951 C   0  0  0  0  0  0  0  0  0  0  0  0
    3.8516   -0.6058    1.4283 C   0  0  0  0  0  0  0  0  0  0  0  0
    2.4984   -0.1122    0.8864 C   0  0  0  0  0  0  0  0  0  0  0  0
    2.6976    0.7083   -0.3981 C   0  0  0  0  0  0  0  0  0  0  0  0
    4.0545    1.4043   -0.4290 C   0  0  0  0  0  0  0  0  0  0  0  0
    1.5904   -1.2872    0.5890 C   0  0  0  0  0  0  0  0  0  0  0  0
    2.0722   -2.4136    0.3484 O   0  0  0  0  0  0  0  0  0  0  0  0
    0.2415   -1.0932    0.5040 N   0  0  0  0  0  0  0  0  0  0  0  0
   -0.5972   -2.2650    0.2111 C   0  0  0  0  0  0  0  0  0  0  0  0
   -2.0757   -1.9913    0.4542 C   0  0  0  0  0  0  0  0  0  0  0  0
   -2.2430   -1.2528    1.7215 N   0  0  0  0  0  0  0  0  0  0  0  0
   -1.5291    0.0322    1.8284 C   0  0  0  0  0  0  0  0  0  0  0  0
   -0.4712    0.1693    0.7351 C   0  0  0  0  0  0  0  0  0  0  0  0
   -3.7149   -1.3962    2.4882 S   0  0  0  0  0  0  0  0  0  0  0  0
   -3.6080   -0.7199    3.7675 O   0  0  0  0  0  0  0  0  0  0  0  0
   -4.1222   -2.7778    2.3933 O   0  0  0  0  0  0  0  0  0  0  0  0
   -4.7822   -0.4197    1.4397 C   0  0  0  0  0  0  0  0  0  0  0  0
   -5.2656   -0.9389    0.2343 C   0  0  0  0  0  0  0  0  0  0  0  0
   -6.0669   -0.1456   -0.6017 C   0  0  0  0  0  0  0  0  0  0  0  0
   -6.4022    1.1741   -0.2130 C   0  0  0  0  0  0  0  0  0  0  0  0
   -5.9168    1.6712    1.0091 C   0  0  0  0  0  0  0  0  0  0  0  0
   -5.1126    0.8750    1.8298 C   0  0  0  0  0  0  0  0  0  0  0  0
   -7.2106    1.9570   -1.0540 C   0  0  0  0  0  0  0  0  0  0  0  0
   -7.6747    1.4354   -2.2641 C   0  0  0  0  0  0  0  0  0  0  0  0
   -7.3412    0.1395   -2.6506 C   0  0  0  0  0  0  0  0  0  0  0  0
   -6.5412   -0.6484   -1.8238 C   0  0  0  0  0  0  0  0  0  0  0  0
   -8.6636    2.4011   -3.2881 Cl  0  0  0  0  0  0  0  0  0  0  0  0
    9.1955   -0.8463   -2.0605 H   0  0  0  0  0  0  0  0  0  0  0  0
    6.9933   -1.4059   -1.1092 H   0  0  0  0  0  0  0  0  0  0  0  0
    6.1526    2.8254   -1.0290 H   0  0  0  0  0  0  0  0  0  0  0  0
    8.3635    3.1825   -2.0440 H   0  0  0  0  0  0  0  0  0  0  0  0
    4.4504   -1.5995   -0.4031 H   0  0  0  0  0  0  0  0  0  0  0  0
    5.7745   -1.2421    0.7235 H   0  0  0  0  0  0  0  0  0  0  0  0
    3.7274   -1.5239    2.0131 H   0  0  0  0  0  0  0  0  0  0  0  0
    4.2641    0.1536    2.1063 H   0  0  0  0  0  0  0  0  0  0  0  0
    2.0297    0.4920    1.6739 H   0  0  0  0  0  0  0  0  0  0  0  0
    1.8952    1.4403   -0.5197 H   0  0  0  0  0  0  0  0  0  0  0  0
    2.6404    0.0329   -1.2634 H   0  0  0  0  0  0  0  0  0  0  0  0
    4.1204    1.9868   -1.3526 H   0  0  0  0  0  0  0  0  0  0  0  0
    4.1673    2.0898    0.4191 H   0  0  0  0  0  0  0  0  0  0  0  0
   -0.4106   -2.5550   -0.8323 H   0  0  0  0  0  0  0  0  0  0  0  0
   -0.2578   -3.1008    0.8351 H   0  0  0  0  0  0  0  0  0  0  0  0
   -2.5050   -1.4186   -0.3763 H   0  0  0  0  0  0  0  0  0  0  0  0
   -2.6023   -2.9439    0.5242 H   0  0  0  0  0  0  0  0  0  0  0  0
   -1.0556    0.0651    2.8159 H   0  0  0  0  0  0  0  0  0  0  0  0
   -2.2277    0.8695    1.7563 H   0  0  0  0  0  0  0  0  0  0  0  0
    0.2146    0.9772    0.9776 H   0  0  0  0  0  0  0  0  0  0  0  0
   -0.9572    0.4428   -0.2119 H   0  0  0  0  0  0  0  0  0  0  0  0
   -5.0072   -1.9537   -0.0601 H   0  0  0  0  0  0  0  0  0  0  0  0
   -6.1610    2.6820    1.3301 H   0  0  0  0  0  0  0  0  0  0  0  0
   -4.7328    1.2736    2.7719 H   0  0  0  0  0  0  0  0  0  0  0  0
   -7.4832    2.9736   -0.7717 H   0  0  0  0  0  0  0  0  0  0  0  0
   -7.7092   -0.2576   -3.5981 H   0  0  0  0  0  0  0  0  0  0  0  0
   -6.2879   -1.6623   -2.1322 H   0  0  0  0  0  0  0  0  0  0  0  0
  1  2  2  0  0  0  0
  1  6  1  0  0  0  0
  2  3  1  0  0  0  0
  3 36  1  0  0  0  0
  3  4  2  0  0  0  0
  4  7  1  0  0  0  0
  5 37  1  0  0  0  0
  5  4  1  0  0  0  0
  6  5  2  0  0  0  0
  7  8  1  0  0  0  0
  8 40  1  0  0  0  0
  8  9  1  0  0  0  0
  9 41  1  0  0  0  0
  9 42  1  0  0  0  0
 10  9  1  0  0  0  0
 10 43  1  0  0  0  0
 11 10  1  0  0  0  0
 12  7  1  0  0  0  0
 12 11  1  0  0  0  0
 12 47  1  0  0  0  0
 13 10  1  0  0  0  0
 14 13  2  0  0  0  0
 15 13  1  0  0  0  0
 15 20  1  0  0  0  0
 16 17  1  0  0  0  0
 16 15  1  0  0  0  0
 16 49  1  0  0  0  0
 17 51  1  0  0  0  0
 17 18  1  0  0  0  0
 18 19  1  0  0  0  0
 18 21  1  0  0  0  0
 19 52  1  0  0  0  0
 20 54  1  0  0  0  0
 20 19  1  0  0  0  0
 21 22  2  0  0  0  0
 23 21  2  0  0  0  0
 24 29  1  0  0  0  0
 24 21  1  0  0  0  0
 25 24  2  0  0  0  0
 26 27  1  0  0  0  0
 26 25  1  0  0  0  0
 27 28  1  0  0  0  0
 28 57  1  0  0  0  0
 28 29  2  0  0  0  0
 29 58  1  0  0  0  0
 30 59  1  0  0  0  0
 30 27  2  0  0  0  0
 31 30  1  0  0  0  0
 32 31  2  0  0  0  0
 32 33  1  0  0  0  0
 33 26  2  0  0  0  0
 34 31  1  0  0  0  0
 35  2  1  0  0  0  0
 38  6  1  0  0  0  0
 39  8  1  0  0  0  0
 44 11  1  0  0  0  0
 45 11  1  0  0  0  0
 46 12  1  0  0  0  0
 48 16  1  0  0  0  0
 50 17  1  0  0  0  0
 53 19  1  0  0  0  0
 55 20  1  0  0  0  0
 56 25  1  0  0  0  0
 60 32  1  0  0  0  0
 61 33  1  0  0  0  0
M  END
