53.6581
 OpenBabel10231816213D

 36 36  0  0  1  0  0  0  0  0999 V2000
    3.3195    2.4533   -0.3738 C   0  0  0  0  0  0  0  0  0  0  0  0
    3.8931    1.2298   -1.0310 C   0  0  0  0  0  0  0  0  0  0  0  0
    3.2554    1.1231    0.3246 C   0  0  0  0  0  0  0  0  0  0  0  0
    1.9429    0.4959    0.4842 N   0  0  0  0  0  0  0  0  0  0  0  0
    2.0203   -0.9572    0.6802 C   0  0  0  0  0  0  0  0  0  0  0  0
    0.7328   -1.6649    1.2071 C   0  0  0  0  0  0  0  0  0  0  0  0
   -0.5155   -1.5528    0.2603 C   0  0  1  0  0  0  0  0  0  0  0  0
   -1.4416   -2.6787    0.6087 N   0  0  0  0  0  0  0  0  0  0  0  0
   -1.2666   -0.2064    0.3648 C   0  0  0  0  0  0  0  0  0  0  0  0
   -2.3213   -0.0083   -0.7277 C   0  0  0  0  0  0  0  0  0  0  0  0
   -3.0252    1.3418   -0.5707 C   0  0  0  0  0  0  0  0  0  0  0  0
   -4.1061    1.5322   -1.6233 C   0  0  0  0  0  0  0  0  0  0  0  0
    1.0554   -3.0496    1.3500 O   0  0  0  0  0  0  0  0  0  0  0  0
    0.3757   -1.2339    2.5099 O   0  0  0  0  0  0  0  0  0  0  0  0
    4.0019    3.1938    0.0294 H   0  0  0  0  0  0  0  0  0  0  0  0
    2.4059    2.8719   -0.7811 H   0  0  0  0  0  0  0  0  0  0  0  0
    3.3732    0.8194   -1.8877 H   0  0  0  0  0  0  0  0  0  0  0  0
    4.9722    1.1458   -1.0878 H   0  0  0  0  0  0  0  0  0  0  0  0
    3.9235    1.0035    1.1752 H   0  0  0  0  0  0  0  0  0  0  0  0
    1.3600    0.6953   -0.3269 H   0  0  0  0  0  0  0  0  0  0  0  0
    2.8235   -1.1712    1.4013 H   0  0  0  0  0  0  0  0  0  0  0  0
    2.3253   -1.4307   -0.2622 H   0  0  0  0  0  0  0  0  0  0  0  0
   -0.1868   -1.7295   -0.7723 H   0  0  0  0  0  0  0  0  0  0  0  0
   -2.2012   -2.7181   -0.0692 H   0  0  0  0  0  0  0  0  0  0  0  0
   -1.8748   -2.4440    1.5063 H   0  0  0  0  0  0  0  0  0  0  0  0
   -1.7432   -0.1199    1.3500 H   0  0  0  0  0  0  0  0  0  0  0  0
   -0.5688    0.6294    0.3011 H   0  0  0  0  0  0  0  0  0  0  0  0
   -3.0702   -0.8076   -0.6875 H   0  0  0  0  0  0  0  0  0  0  0  0
   -1.8434   -0.0572   -1.7132 H   0  0  0  0  0  0  0  0  0  0  0  0
   -3.4795    1.4116    0.4245 H   0  0  0  0  0  0  0  0  0  0  0  0
   -2.2974    2.1573   -0.6506 H   0  0  0  0  0  0  0  0  0  0  0  0
   -4.8608    0.7418   -1.5562 H   0  0  0  0  0  0  0  0  0  0  0  0
   -4.6094    2.4946   -1.4810 H   0  0  0  0  0  0  0  0  0  0  0  0
   -3.6793    1.5163   -2.6305 H   0  0  0  0  0  0  0  0  0  0  0  0
    0.1912   -3.4855    1.1913 H   0  0  0  0  0  0  0  0  0  0  0  0
    1.1193   -1.5412    3.0640 H   0  0  0  0  0  0  0  0  0  0  0  0
  1 15  1  0  0  0  0
  1  3  1  0  0  0  0
  2  1  1  0  0  0  0
  2  3  1  0  0  0  0
  3  4  1  0  0  0  0
  3 19  1  0  0  0  0
  4  5  1  0  0  0  0
  5  6  1  0  0  0  0
  5 21  1  0  0  0  0
  6 13  1  0  0  0  0
  6 14  1  0  0  0  0
  7 23  1  6  0  0  0
  7  9  1  0  0  0  0
  7  8  1  0  0  0  0
  7  6  1  0  0  0  0
  8 25  1  0  0  0  0
  9 26  1  0  0  0  0
 10 28  1  0  0  0  0
 10 11  1  0  0  0  0
 10  9  1  0  0  0  0
 11 30  1  0  0  0  0
 12 32  1  0  0  0  0
 12 33  1  0  0  0  0
 12 11  1  0  0  0  0
 14 36  1  0  0  0  0
 16  1  1  0  0  0  0
 17  2  1  0  0  0  0
 18  2  1  0  0  0  0
 20  4  1  0  0  0  0
 22  5  1  0  0  0  0
 24  8  1  0  0  0  0
 27  9  1  0  0  0  0
 29 10  1  0  0  0  0
 31 11  1  0  0  0  0
 34 12  1  0  0  0  0
 35 13  1  0  0  0  0
M  END
