129.2
 OpenBabel10231816213D

 34 35  0  0  1  0  0  0  0  0999 V2000
   -1.2090   -0.9641   -0.1239 C   0  0  1  0  0  0  0  0  0  0  0  0
    0.2519   -0.8723   -0.1696 N   0  0  0  0  0  0  0  0  0  0  0  0
    0.8386    0.4391   -0.4083 C   0  0  0  0  0  0  0  0  0  0  0  0
    2.3424    0.4033   -0.1838 C   0  0  0  0  0  0  0  0  0  0  0  0
    3.0950   -0.7430   -0.4830 C   0  0  0  0  0  0  0  0  0  0  0  0
    4.4770   -0.7668   -0.2970 C   0  0  0  0  0  0  0  0  0  0  0  0
    5.1323    0.3629    0.1781 C   0  0  0  0  0  0  0  0  0  0  0  0
    4.4019    1.5164    0.4761 C   0  0  0  0  0  0  0  0  0  0  0  0
    3.0192    1.5356    0.2932 C   0  0  0  0  0  0  0  0  0  0  0  0
   -1.8724   -0.6727    1.2415 C   0  0  1  0  0  0  0  0  0  0  0  0
   -1.5435    0.6275    1.7310 O   0  0  0  0  0  0  0  0  0  0  0  0
   -3.3601   -0.7020    0.8750 C   0  0  1  0  0  0  0  0  0  0  0  0
   -4.1737   -0.0646    1.8519 O   0  0  0  0  0  0  0  0  0  0  0  0
   -3.4430   -0.0586   -0.5280 C   0  0  1  0  0  0  0  0  0  0  0  0
   -3.9596    1.2720   -0.4435 O   0  0  0  0  0  0  0  0  0  0  0  0
   -1.9960   -0.0201   -1.0591 C   0  0  2  0  0  0  0  0  0  0  0  0
   -1.8427   -0.3824   -2.8420 S   0  0  0  0  0  0  0  0  0  0  0  0
   -1.4460   -2.0066   -0.3747 H   0  0  0  0  0  0  0  0  0  0  0  0
    0.6771   -1.3259    0.6338 H   0  0  0  0  0  0  0  0  0  0  0  0
    0.6674    0.7594   -1.4401 H   0  0  0  0  0  0  0  0  0  0  0  0
    0.4171    1.2083    0.2538 H   0  0  0  0  0  0  0  0  0  0  0  0
    2.5974   -1.6336   -0.8584 H   0  0  0  0  0  0  0  0  0  0  0  0
    5.0361   -1.6690   -0.5322 H   0  0  0  0  0  0  0  0  0  0  0  0
    6.2109    0.3506    0.3151 H   0  0  0  0  0  0  0  0  0  0  0  0
    4.9129    2.3982    0.8485 H   0  0  0  0  0  0  0  0  0  0  0  0
    2.4659    2.4455    0.5281 H   0  0  0  0  0  0  0  0  0  0  0  0
   -1.6367   -1.4120    2.0136 H   0  0  0  0  0  0  0  0  0  0  0  0
   -0.6502    0.5589    2.1176 H   0  0  0  0  0  0  0  0  0  0  0  0
   -3.6841   -1.7471    0.8055 H   0  0  0  0  0  0  0  0  0  0  0  0
   -3.9022    0.8760    1.8237 H   0  0  0  0  0  0  0  0  0  0  0  0
   -4.1135   -0.6497   -1.1593 H   0  0  0  0  0  0  0  0  0  0  0  0
   -3.9802    1.6274   -1.3496 H   0  0  0  0  0  0  0  0  0  0  0  0
   -1.6264    1.0037   -0.9516 H   0  0  0  0  0  0  0  0  0  0  0  0
   -2.1036   -1.6942   -2.7826 H   0  0  0  0  0  0  0  0  0  0  0  0
  1 18  1  6  0  0  0
  1 10  1  0  0  0  0
  2  1  1  0  0  0  0
  2 19  1  0  0  0  0
  3  4  1  0  0  0  0
  3  2  1  0  0  0  0
  3 21  1  0  0  0  0
  4  9  2  0  0  0  0
  5  6  2  0  0  0  0
  5  4  1  0  0  0  0
  6  7  1  0  0  0  0
  7 24  1  0  0  0  0
  7  8  2  0  0  0  0
  8 25  1  0  0  0  0
  9  8  1  0  0  0  0
  9 26  1  0  0  0  0
 10 11  1  0  0  0  0
 10 27  1  1  0  0  0
 11 28  1  0  0  0  0
 12 29  1  6  0  0  0
 12 10  1  0  0  0  0
 12 13  1  0  0  0  0
 14 31  1  6  0  0  0
 14 15  1  0  0  0  0
 14 12  1  0  0  0  0
 16 33  1  1  0  0  0
 16 14  1  0  0  0  0
 16  1  1  0  0  0  0
 17 34  1  0  0  0  0
 17 16  1  0  0  0  0
 20  3  1  0  0  0  0
 22  5  1  0  0  0  0
 23  6  1  0  0  0  0
 30 13  1  0  0  0  0
 32 15  1  0  0  0  0
M  END
