42.5537
 OpenBabel10231816213D

 25 25  0  0  1  0  0  0  0  0999 V2000
   -0.0098   -2.7096   -0.9761 O   0  0  0  0  0  0  0  0  0  0  0  0
   -1.2772   -2.3363   -1.2880 C   0  0  0  0  0  0  0  0  0  0  0  0
   -1.9753   -3.0368   -2.0110 O   0  0  0  0  0  0  0  0  0  0  0  0
   -1.6689   -1.0700   -0.7064 C   0  0  0  0  0  0  0  0  0  0  0  0
   -2.8539   -0.5504   -1.0673 N   0  0  0  0  0  0  0  0  0  0  0  0
   -2.9830    0.6337   -0.3890 O   0  0  0  0  0  0  0  0  0  0  0  0
   -1.8911    0.8390    0.3865 C   0  0  0  0  0  0  0  0  0  0  0  0
   -1.0016   -0.2007    0.2209 C   0  0  0  0  0  0  0  0  0  0  0  0
    0.3477   -0.2929    0.8513 C   0  0  0  0  0  0  0  0  0  0  0  0
    1.3975    0.5632    0.1287 C   0  0  2  0  0  0  0  0  0  0  0  0
    1.7052    0.1309   -1.2566 N   0  0  0  0  0  0  0  0  0  0  0  0
    2.6994    0.5806    0.9333 C   0  0  0  0  0  0  0  0  0  0  0  0
    2.7813    0.6737    2.1511 O   0  0  0  0  0  0  0  0  0  0  0  0
    3.8162    0.5447    0.1725 O   0  0  0  0  0  0  0  0  0  0  0  0
   -1.8449    2.0790    1.1875 C   0  0  0  0  0  0  0  0  0  0  0  0
    0.1239   -3.5780   -1.4097 H   0  0  0  0  0  0  0  0  0  0  0  0
    0.2863    0.0598    1.8921 H   0  0  0  0  0  0  0  0  0  0  0  0
    0.6868   -1.3290    0.8982 H   0  0  0  0  0  0  0  0  0  0  0  0
    1.0573    1.6019    0.0978 H   0  0  0  0  0  0  0  0  0  0  0  0
    1.0810    0.6146   -1.9118 H   0  0  0  0  0  0  0  0  0  0  0  0
    1.5010   -0.8711   -1.3483 H   0  0  0  0  0  0  0  0  0  0  0  0
    3.4981    0.4384   -0.7543 H   0  0  0  0  0  0  0  0  0  0  0  0
   -1.5697    2.9353    0.5652 H   0  0  0  0  0  0  0  0  0  0  0  0
   -1.0933    1.9958    1.9826 H   0  0  0  0  0  0  0  0  0  0  0  0
   -2.8127    2.2844    1.6508 H   0  0  0  0  0  0  0  0  0  0  0  0
  2  1  1  0  0  0  0
  2  4  1  0  0  0  0
  3  2  2  0  0  0  0
  4  8  1  0  0  0  0
  5  4  2  0  0  0  0
  5  6  1  0  0  0  0
  6  7  1  0  0  0  0
  7 15  1  0  0  0  0
  8  7  2  0  0  0  0
  8  9  1  0  0  0  0
  9 18  1  0  0  0  0
  9 17  1  0  0  0  0
 10 19  1  6  0  0  0
 10  9  1  0  0  0  0
 10 12  1  0  0  0  0
 11 10  1  0  0  0  0
 12 13  2  0  0  0  0
 14 12  1  0  0  0  0
 15 25  1  0  0  0  0
 15 24  1  0  0  0  0
 16  1  1  0  0  0  0
 20 11  1  0  0  0  0
 21 11  1  0  0  0  0
 22 14  1  0  0  0  0
 23 15  1  0  0  0  0
M  END
