116.189
 OpenBabel10231816213D

 34 35  0  0  1  0  0  0  0  0999 V2000
   -0.7091    0.0927    0.2851 C   0  0  1  0  0  0  0  0  0  0  0  0
   -0.0218    0.6221    1.4765 N   0  0  0  0  0  0  0  0  0  0  0  0
    1.2515   -0.0617    1.7269 C   0  0  0  0  0  0  0  0  0  0  0  0
    2.2531    0.1256    0.6165 C   0  0  0  0  0  0  0  0  0  0  0  0
    3.0169   -0.9514    0.1567 C   0  0  0  0  0  0  0  0  0  0  0  0
    3.9347   -0.7801   -0.8750 C   0  0  0  0  0  0  0  0  0  0  0  0
    4.1036    0.4772   -1.4666 C   0  0  0  0  0  0  0  0  0  0  0  0
    3.3512    1.5586   -1.0183 C   0  0  0  0  0  0  0  0  0  0  0  0
    2.4358    1.3884    0.0192 C   0  0  0  0  0  0  0  0  0  0  0  0
   -1.3165   -1.3130    0.4561 C   0  0  1  0  0  0  0  0  0  0  0  0
   -1.9202   -1.3990    1.7617 O   0  0  0  0  0  0  0  0  0  0  0  0
   -2.4100   -1.3979   -0.6289 C   0  0  1  0  0  0  0  0  0  0  0  0
   -3.5993   -1.9468   -0.0431 O   0  0  0  0  0  0  0  0  0  0  0  0
   -2.6454    0.0536   -1.1041 C   0  0  1  0  0  0  0  0  0  0  0  0
   -4.0475    0.3106   -1.1976 O   0  0  0  0  0  0  0  0  0  0  0  0
   -1.9739    0.9063   -0.0283 C   0  0  2  0  0  0  0  0  0  0  0  0
   -1.6485    2.6073   -0.5831 S   0  0  0  0  0  0  0  0  0  0  0  0
   -0.0556    0.1015   -0.5972 H   0  0  0  0  0  0  0  0  0  0  0  0
   -0.6282    0.4272    2.2792 H   0  0  0  0  0  0  0  0  0  0  0  0
    1.0778   -1.1302    1.9119 H   0  0  0  0  0  0  0  0  0  0  0  0
    1.6896    0.3457    2.6459 H   0  0  0  0  0  0  0  0  0  0  0  0
    2.8928   -1.9435    0.5948 H   0  0  0  0  0  0  0  0  0  0  0  0
    4.5205   -1.6192   -1.2348 H   0  0  0  0  0  0  0  0  0  0  0  0
    4.8202    0.6090   -2.2715 H   0  0  0  0  0  0  0  0  0  0  0  0
    3.4660    2.5355   -1.4808 H   0  0  0  0  0  0  0  0  0  0  0  0
    1.8342    2.2292    0.3470 H   0  0  0  0  0  0  0  0  0  0  0  0
   -0.5778   -2.1153    0.3691 H   0  0  0  0  0  0  0  0  0  0  0  0
   -2.8047   -1.7956    1.5979 H   0  0  0  0  0  0  0  0  0  0  0  0
   -2.0985   -2.0279   -1.4708 H   0  0  0  0  0  0  0  0  0  0  0  0
   -4.3124   -1.3151   -0.2889 H   0  0  0  0  0  0  0  0  0  0  0  0
   -2.1773    0.2021   -2.0856 H   0  0  0  0  0  0  0  0  0  0  0  0
   -4.1507    1.2819   -1.2193 H   0  0  0  0  0  0  0  0  0  0  0  0
   -2.6274    0.9808    0.8503 H   0  0  0  0  0  0  0  0  0  0  0  0
   -0.9232    2.9416    0.4991 H   0  0  0  0  0  0  0  0  0  0  0  0
  1 18  1  6  0  0  0
  1 10  1  0  0  0  0
  1  2  1  0  0  0  0
  2  3  1  0  0  0  0
  2 19  1  0  0  0  0
  3 20  1  0  0  0  0
  3 21  1  0  0  0  0
  4  3  1  0  0  0  0
  5 22  1  0  0  0  0
  5  4  1  0  0  0  0
  6  5  2  0  0  0  0
  7  8  2  0  0  0  0
  7  6  1  0  0  0  0
  8  9  1  0  0  0  0
  9 26  1  0  0  0  0
  9  4  2  0  0  0  0
 10 27  1  6  0  0  0
 10 11  1  0  0  0  0
 12 29  1  6  0  0  0
 12 13  1  0  0  0  0
 12 10  1  0  0  0  0
 14 31  1  6  0  0  0
 14 12  1  0  0  0  0
 14 16  1  0  0  0  0
 15 14  1  0  0  0  0
 16  1  1  0  0  0  0
 16 33  1  1  0  0  0
 17 16  1  0  0  0  0
 17 34  1  0  0  0  0
 23  6  1  0  0  0  0
 24  7  1  0  0  0  0
 25  8  1  0  0  0  0
 28 11  1  0  0  0  0
 30 13  1  0  0  0  0
 32 15  1  0  0  0  0
M  END
