78.8919
 OpenBabel10231816213D

 50 52  0  0  1  0  0  0  0  0999 V2000
    7.1179   -0.6800   -0.3667 O   0  0  0  0  0  0  0  0  0  0  0  0
    6.2293    0.3086   -0.1261 C   0  0  0  0  0  0  0  0  0  0  0  0
    6.4623    1.2073    0.6564 O   0  0  0  0  0  0  0  0  0  0  0  0
    4.9329    0.1703   -0.9221 C   0  0  1  0  0  0  0  0  0  0  0  0
    4.1157   -1.0092   -0.3749 C   0  0  0  0  0  0  0  0  0  0  0  0
    3.1922   -0.5435    0.7588 C   0  0  0  0  0  0  0  0  0  0  0  0
    2.0821    0.4185    0.2500 C   0  0  2  0  0  0  0  0  0  0  0  0
    2.6076    1.1979   -0.9915 C   0  0  0  0  0  0  0  0  0  0  0  0
    4.1125    1.4787   -0.8750 C   0  0  0  0  0  0  0  0  0  0  0  0
    1.8183    1.3885    1.3529 C   0  0  0  0  0  0  0  0  0  0  0  0
    1.5804    2.1503    2.1948 N   0  0  0  0  0  0  0  0  0  0  0  0
    0.7654   -0.2843   -0.1272 C   0  0  0  0  0  0  0  0  0  0  0  0
    0.6565   -1.6689   -0.3431 C   0  0  0  0  0  0  0  0  0  0  0  0
   -0.5717   -2.2544   -0.6764 C   0  0  0  0  0  0  0  0  0  0  0  0
   -1.7143   -1.4664   -0.8093 C   0  0  0  0  0  0  0  0  0  0  0  0
   -2.9633   -1.9238   -1.1164 O   0  0  0  0  0  0  0  0  0  0  0  0
   -3.1147   -3.3141   -1.3261 C   0  0  0  0  0  0  0  0  0  0  0  0
   -1.6205   -0.0903   -0.5961 C   0  0  0  0  0  0  0  0  0  0  0  0
   -0.3992    0.4950   -0.2764 C   0  0  0  0  0  0  0  0  0  0  0  0
   -2.7253    0.6996   -0.7884 O   0  0  0  0  0  0  0  0  0  0  0  0
   -3.2921    1.1634    0.4387 C   0  0  0  0  0  0  0  0  0  0  0  0
   -3.9939    0.0751    1.2498 C   0  0  0  0  0  0  0  0  0  0  0  0
   -4.9407    0.8650    2.1390 C   0  0  0  0  0  0  0  0  0  0  0  0
   -5.4862    1.9541    1.2182 C   0  0  0  0  0  0  0  0  0  0  0  0
   -4.4346    2.1360    0.1166 C   0  0  0  0  0  0  0  0  0  0  0  0
    6.8256   -1.3308   -1.0209 H   0  0  0  0  0  0  0  0  0  0  0  0
    5.2113   -0.0246   -1.9667 H   0  0  0  0  0  0  0  0  0  0  0  0
    4.7716   -1.8074   -0.0161 H   0  0  0  0  0  0  0  0  0  0  0  0
    3.5198   -1.4363   -1.1906 H   0  0  0  0  0  0  0  0  0  0  0  0
    3.8180   -0.0217    1.4970 H   0  0  0  0  0  0  0  0  0  0  0  0
    2.7681   -1.3957    1.2991 H   0  0  0  0  0  0  0  0  0  0  0  0
    2.0594    2.1409   -1.1160 H   0  0  0  0  0  0  0  0  0  0  0  0
    2.4340    0.6186   -1.9095 H   0  0  0  0  0  0  0  0  0  0  0  0
    4.4404    2.1541   -1.6732 H   0  0  0  0  0  0  0  0  0  0  0  0
    4.2946    2.0176    0.0631 H   0  0  0  0  0  0  0  0  0  0  0  0
    1.5158   -2.3294   -0.2549 H   0  0  0  0  0  0  0  0  0  0  0  0
   -0.6057   -3.3300   -0.8228 H   0  0  0  0  0  0  0  0  0  0  0  0
   -2.5107   -3.6494   -2.1743 H   0  0  0  0  0  0  0  0  0  0  0  0
   -4.1676   -3.4838   -1.5646 H   0  0  0  0  0  0  0  0  0  0  0  0
   -2.8708   -3.8821   -0.4226 H   0  0  0  0  0  0  0  0  0  0  0  0
   -0.3652    1.5723   -0.1317 H   0  0  0  0  0  0  0  0  0  0  0  0
   -2.5389    1.6775    1.0494 H   0  0  0  0  0  0  0  0  0  0  0  0
   -3.2865   -0.5341    1.8222 H   0  0  0  0  0  0  0  0  0  0  0  0
   -4.5540   -0.5983    0.5912 H   0  0  0  0  0  0  0  0  0  0  0  0
   -4.3875    1.3202    2.9693 H   0  0  0  0  0  0  0  0  0  0  0  0
   -5.7303    0.2426    2.5724 H   0  0  0  0  0  0  0  0  0  0  0  0
   -6.4414    1.6430    0.7764 H   0  0  0  0  0  0  0  0  0  0  0  0
   -5.6811    2.8826    1.7659 H   0  0  0  0  0  0  0  0  0  0  0  0
   -4.0713    3.1689    0.0664 H   0  0  0  0  0  0  0  0  0  0  0  0
   -4.8640    1.9121   -0.8681 H   0  0  0  0  0  0  0  0  0  0  0  0
  1  2  1  0  0  0  0
  2  3  2  0  0  0  0
  4 27  1  6  0  0  0
  4  9  1  0  0  0  0
  4  5  1  0  0  0  0
  4  2  1  0  0  0  0
  5 28  1  0  0  0  0
  5  6  1  0  0  0  0
  6 31  1  0  0  0  0
  6 30  1  0  0  0  0
  7 12  1  6  0  0  0
  7  6  1  0  0  0  0
  7 10  1  0  0  0  0
  8  9  1  0  0  0  0
  8  7  1  0  0  0  0
  9 35  1  0  0  0  0
 10 11  3  0  0  0  0
 13 36  1  0  0  0  0
 13 12  2  0  0  0  0
 14 13  1  0  0  0  0
 15 14  2  0  0  0  0
 15 18  1  0  0  0  0
 16 15  1  0  0  0  0
 17 16  1  0  0  0  0
 17 40  1  0  0  0  0
 18 19  2  0  0  0  0
 19 41  1  0  0  0  0
 19 12  1  0  0  0  0
 20 18  1  0  0  0  0
 20 21  1  0  0  0  0
 21 42  1  0  0  0  0
 21 22  1  0  0  0  0
 22 43  1  0  0  0  0
 22 23  1  0  0  0  0
 23 46  1  0  0  0  0
 23 45  1  0  0  0  0
 24 48  1  0  0  0  0
 24 23  1  0  0  0  0
 25 21  1  0  0  0  0
 25 24  1  0  0  0  0
 26  1  1  0  0  0  0
 29  5  1  0  0  0  0
 32  8  1  0  0  0  0
 33  8  1  0  0  0  0
 34  9  1  0  0  0  0
 37 14  1  0  0  0  0
 38 17  1  0  0  0  0
 39 17  1  0  0  0  0
 44 22  1  0  0  0  0
 47 24  1  0  0  0  0
 49 25  1  0  0  0  0
 50 25  1  0  0  0  0
M  END
