39.8654
 OpenBabel10231816213D

 25 25  0  0  1  0  0  0  0  0999 V2000
   -1.5927   -3.6655   -0.9277 O   0  0  0  0  0  0  0  0  0  0  0  0
   -0.8032   -2.5754   -1.0275 C   0  0  0  0  0  0  0  0  0  0  0  0
    0.3281   -2.6312   -1.4776 O   0  0  0  0  0  0  0  0  0  0  0  0
   -1.3899   -1.3407   -0.5115 C   0  0  0  0  0  0  0  0  0  0  0  0
   -2.6325   -1.3362   -0.0063 N   0  0  0  0  0  0  0  0  0  0  0  0
   -2.8815   -0.0336    0.3848 O   0  0  0  0  0  0  0  0  0  0  0  0
   -1.7963    0.7397    0.1222 C   0  0  0  0  0  0  0  0  0  0  0  0
   -0.8066   -0.0391   -0.4388 C   0  0  0  0  0  0  0  0  0  0  0  0
    0.5748    0.3782   -0.8280 C   0  0  0  0  0  0  0  0  0  0  0  0
    1.6373   -0.1117    0.1598 C   0  0  2  0  0  0  0  0  0  0  0  0
    1.3895    0.4018    1.5425 N   0  0  0  0  0  0  0  0  0  0  0  0
    2.9893    0.4010   -0.3098 C   0  0  0  0  0  0  0  0  0  0  0  0
    3.5908   -0.0221   -1.2891 O   0  0  0  0  0  0  0  0  0  0  0  0
    3.4485    1.4429    0.4180 O   0  0  0  0  0  0  0  0  0  0  0  0
   -1.8812    2.1692    0.4936 C   0  0  0  0  0  0  0  0  0  0  0  0
   -2.4516   -3.4091   -0.5488 H   0  0  0  0  0  0  0  0  0  0  0  0
    0.6262    1.4713   -0.9023 H   0  0  0  0  0  0  0  0  0  0  0  0
    0.8092   -0.0131   -1.8228 H   0  0  0  0  0  0  0  0  0  0  0  0
    1.6686   -1.2103    0.1537 H   0  0  0  0  0  0  0  0  0  0  0  0
    1.6860   -0.3156    2.2148 H   0  0  0  0  0  0  0  0  0  0  0  0
    0.3805    0.4959    1.6846 H   0  0  0  0  0  0  0  0  0  0  0  0
    2.7965    1.5647    1.1472 H   0  0  0  0  0  0  0  0  0  0  0  0
   -2.7337    2.6523    0.0090 H   0  0  0  0  0  0  0  0  0  0  0  0
   -0.9738    2.6970    0.1838 H   0  0  0  0  0  0  0  0  0  0  0  0
   -1.9824    2.2897    1.5762 H   0  0  0  0  0  0  0  0  0  0  0  0
  1 16  1  0  0  0  0
  2  1  1  0  0  0  0
  2  4  1  0  0  0  0
  3  2  2  0  0  0  0
  4  8  1  0  0  0  0
  4  5  2  0  0  0  0
  5  6  1  0  0  0  0
  7  6  1  0  0  0  0
  7 15  1  0  0  0  0
  8  7  2  0  0  0  0
  9  8  1  0  0  0  0
  9 10  1  0  0  0  0
 10 19  1  1  0  0  0
 10 11  1  0  0  0  0
 11 21  1  0  0  0  0
 11 20  1  0  0  0  0
 12 10  1  0  0  0  0
 12 14  1  0  0  0  0
 13 12  2  0  0  0  0
 14 22  1  0  0  0  0
 15 25  1  0  0  0  0
 17  9  1  0  0  0  0
 18  9  1  0  0  0  0
 23 15  1  0  0  0  0
 24 15  1  0  0  0  0
M  END
