-4.32346
 OpenBabel10231816213D

 66 68  0  0  1  0  0  0  0  0999 V2000
    0.7452   -0.5398   -0.5482 C   0  0  2  0  0  0  0  0  0  0  0  0
    0.5396   -1.5502   -1.7022 C   0  0  0  0  0  0  0  0  0  0  0  0
   -0.6392   -2.4686   -1.4440 C   0  0  0  0  0  0  0  0  0  0  0  0
   -1.7025   -2.5410   -2.3543 C   0  0  0  0  0  0  0  0  0  0  0  0
   -2.8942   -3.1829   -2.0041 C   0  0  0  0  0  0  0  0  0  0  0  0
   -3.0356   -3.7058   -0.7218 C   0  0  0  0  0  0  0  0  0  0  0  0
   -1.9484   -3.7612    0.1369 C   0  0  0  0  0  0  0  0  0  0  0  0
   -0.7459   -3.1609   -0.2317 C   0  0  0  0  0  0  0  0  0  0  0  0
   -4.2894   -4.0724   -0.3050 O   0  0  0  0  0  0  0  0  0  0  0  0
   -4.8130   -3.1327    0.6610 C   0  0  0  0  0  0  0  0  0  0  0  0
   -4.9830   -1.7242    0.0680 C   0  0  0  0  0  0  0  0  0  0  0  0
   -5.1465   -0.6582    1.1346 C   0  0  0  0  0  0  0  0  0  0  0  0
   -3.9019   -0.4416    1.9691 C   0  0  0  0  0  0  0  0  0  0  0  0
   -3.8251   -0.9364    3.1133 O   0  0  0  0  0  0  0  0  0  0  0  0
   -2.8273    0.2530    1.5044 N   0  0  0  0  0  0  0  0  0  0  0  0
   -2.7283    1.0255    0.2605 C   0  0  2  0  0  0  0  0  0  0  0  0
   -1.4674    0.6967   -0.5722 C   0  0  0  0  0  0  0  0  0  0  0  0
   -1.2797    1.1992   -1.6716 O   0  0  0  0  0  0  0  0  0  0  0  0
   -0.5192   -0.0739    0.0622 N   0  0  0  0  0  0  0  0  0  0  0  0
   -2.7048    2.5295    0.5165 C   0  0  0  0  0  0  0  0  0  0  0  0
   -4.0521    3.0434    0.9649 C   0  0  0  0  0  0  0  0  0  0  0  0
   -5.1052    2.4421    0.8461 O   0  0  0  0  0  0  0  0  0  0  0  0
   -4.0325    4.2918    1.5103 N   0  0  0  0  0  0  0  0  0  0  0  0
    1.6598    0.6409   -0.9326 C   0  0  2  0  0  0  0  0  0  0  0  0
    1.3195    1.2110   -2.2076 O   0  0  0  0  0  0  0  0  0  0  0  0
    3.1379    0.2398   -1.0162 C   0  0  0  0  0  0  0  0  0  0  0  0
    3.8929    1.4451   -1.4089 N   0  0  0  0  0  0  0  0  0  0  0  0
    5.5410    1.3170   -1.6799 S   0  0  0  0  0  0  0  0  0  0  0  0
    5.7968    0.0142   -2.2349 O   0  0  0  0  0  0  0  0  0  0  0  0
    5.8939    2.5322   -2.3891 O   0  0  0  0  0  0  0  0  0  0  0  0
    6.2614    1.4031   -0.0720 C   0  0  0  0  0  0  0  0  0  0  0  0
    6.4235    0.2394    0.6803 C   0  0  0  0  0  0  0  0  0  0  0  0
    7.0206    0.3101    1.9407 C   0  0  0  0  0  0  0  0  0  0  0  0
    7.4726    1.5377    2.4298 C   0  0  0  0  0  0  0  0  0  0  0  0
    7.3350    2.6937    1.6588 C   0  0  0  0  0  0  0  0  0  0  0  0
    6.7381    2.6243    0.4005 C   0  0  0  0  0  0  0  0  0  0  0  0
    1.2337   -1.0626    0.2848 H   0  0  0  0  0  0  0  0  0  0  0  0
    1.4538   -2.1452   -1.8280 H   0  0  0  0  0  0  0  0  0  0  0  0
    0.3862   -1.0097   -2.6440 H   0  0  0  0  0  0  0  0  0  0  0  0
   -1.6247   -2.0519   -3.3229 H   0  0  0  0  0  0  0  0  0  0  0  0
   -3.7402   -3.1866   -2.6863 H   0  0  0  0  0  0  0  0  0  0  0  0
   -2.0525   -4.2334    1.1066 H   0  0  0  0  0  0  0  0  0  0  0  0
    0.0867   -3.1691    0.4652 H   0  0  0  0  0  0  0  0  0  0  0  0
   -5.7890   -3.5310    0.9730 H   0  0  0  0  0  0  0  0  0  0  0  0
   -4.1782   -3.1085    1.5536 H   0  0  0  0  0  0  0  0  0  0  0  0
   -5.8484   -1.7231   -0.6079 H   0  0  0  0  0  0  0  0  0  0  0  0
   -4.1217   -1.4726   -0.5494 H   0  0  0  0  0  0  0  0  0  0  0  0
   -5.9521   -0.9373    1.8239 H   0  0  0  0  0  0  0  0  0  0  0  0
   -5.4552    0.2807    0.6718 H   0  0  0  0  0  0  0  0  0  0  0  0
   -2.1735    0.4820    2.2463 H   0  0  0  0  0  0  0  0  0  0  0  0
   -3.5710    0.7786   -0.3806 H   0  0  0  0  0  0  0  0  0  0  0  0
   -0.8713   -0.6354    0.8305 H   0  0  0  0  0  0  0  0  0  0  0  0
   -2.4520    3.0503   -0.4169 H   0  0  0  0  0  0  0  0  0  0  0  0
   -1.9376    2.7927    1.2524 H   0  0  0  0  0  0  0  0  0  0  0  0
   -3.2177    4.8856    1.4682 H   0  0  0  0  0  0  0  0  0  0  0  0
   -4.9242    4.7206    1.7383 H   0  0  0  0  0  0  0  0  0  0  0  0
    1.5515    1.4308   -0.1778 H   0  0  0  0  0  0  0  0  0  0  0  0
    0.3528    1.3855   -2.1896 H   0  0  0  0  0  0  0  0  0  0  0  0
    3.2684   -0.5431   -1.7695 H   0  0  0  0  0  0  0  0  0  0  0  0
    3.4953   -0.1135   -0.0498 H   0  0  0  0  0  0  0  0  0  0  0  0
    3.4593    1.9230   -2.2096 H   0  0  0  0  0  0  0  0  0  0  0  0
    6.0819   -0.7132    0.2858 H   0  0  0  0  0  0  0  0  0  0  0  0
    7.1354   -0.5909    2.5388 H   0  0  0  0  0  0  0  0  0  0  0  0
    7.9387    1.5932    3.4112 H   0  0  0  0  0  0  0  0  0  0  0  0
    7.6926    3.6490    2.0343 H   0  0  0  0  0  0  0  0  0  0  0  0
    6.6365    3.5156   -0.2142 H   0  0  0  0  0  0  0  0  0  0  0  0
  1 19  1  0  0  0  0
  1 37  1  1  0  0  0
  2  3  1  0  0  0  0
  2  1  1  0  0  0  0
  3  8  2  0  0  0  0
  4  5  2  0  0  0  0
  4  3  1  0  0  0  0
  5  6  1  0  0  0  0
  6  9  1  0  0  0  0
  6  7  2  0  0  0  0
  7 42  1  0  0  0  0
  8  7  1  0  0  0  0
  8 43  1  0  0  0  0
  9 10  1  0  0  0  0
 10 44  1  0  0  0  0
 10 45  1  0  0  0  0
 11 10  1  0  0  0  0
 11 12  1  0  0  0  0
 12 48  1  0  0  0  0
 12 13  1  0  0  0  0
 13 14  2  0  0  0  0
 15 13  1  0  0  0  0
 15 50  1  0  0  0  0
 16 51  1  6  0  0  0
 16 20  1  0  0  0  0
 16 15  1  0  0  0  0
 17 19  1  0  0  0  0
 17 16  1  0  0  0  0
 18 17  2  0  0  0  0
 19 52  1  0  0  0  0
 20 21  1  0  0  0  0
 20 54  1  0  0  0  0
 21 23  1  0  0  0  0
 22 21  2  0  0  0  0
 23 56  1  0  0  0  0
 24  1  1  0  0  0  0
 24 57  1  1  0  0  0
 25 58  1  0  0  0  0
 25 24  1  0  0  0  0
 26 24  1  0  0  0  0
 26 60  1  0  0  0  0
 27 26  1  0  0  0  0
 28 27  1  0  0  0  0
 28 31  1  0  0  0  0
 29 28  2  0  0  0  0
 30 28  2  0  0  0  0
 31 36  2  0  0  0  0
 31 32  1  0  0  0  0
 32 33  2  0  0  0  0
 33 34  1  0  0  0  0
 33 63  1  0  0  0  0
 34 64  1  0  0  0  0
 35 65  1  0  0  0  0
 35 34  2  0  0  0  0
 36 35  1  0  0  0  0
 38  2  1  0  0  0  0
 39  2  1  0  0  0  0
 40  4  1  0  0  0  0
 41  5  1  0  0  0  0
 46 11  1  0  0  0  0
 47 11  1  0  0  0  0
 49 12  1  0  0  0  0
 53 20  1  0  0  0  0
 55 23  1  0  0  0  0
 59 26  1  0  0  0  0
 61 27  1  0  0  0  0
 62 32  1  0  0  0  0
 66 36  1  0  0  0  0
M  END
