43.3177
 OpenBabel10231816213D

 61 65  0  0  0  0  0  0  0  0999 V2000
    8.7000   -1.5230   -1.3094 N   0  0  0  0  0  0  0  0  0  0  0  0
    7.5602   -2.0348   -1.8164 C   0  0  0  0  0  0  0  0  0  0  0  0
    6.2956   -1.5328   -1.5423 C   0  0  0  0  0  0  0  0  0  0  0  0
    6.1539   -0.4154   -0.7107 C   0  0  0  0  0  0  0  0  0  0  0  0
    7.3334    0.1114   -0.1681 C   0  0  0  0  0  0  0  0  0  0  0  0
    8.5569   -0.4625   -0.4910 C   0  0  0  0  0  0  0  0  0  0  0  0
    4.8683    0.0861   -0.4116 N   0  0  0  0  0  0  0  0  0  0  0  0
    4.7869    1.0723    0.6671 C   0  0  0  0  0  0  0  0  0  0  0  0
    3.3430    1.2151    1.1453 C   0  0  0  0  0  0  0  0  0  0  0  0
    2.4148    1.5530   -0.0251 C   0  0  0  0  0  0  0  0  0  0  0  0
    2.5721    0.5541   -1.1761 C   0  0  0  0  0  0  0  0  0  0  0  0
    4.0456    0.4339   -1.5829 C   0  0  0  0  0  0  0  0  0  0  0  0
    0.9852    1.8324    0.3642 C   0  0  0  0  0  0  0  0  0  0  0  0
    0.5213    2.9733    0.1147 O   0  0  0  0  0  0  0  0  0  0  0  0
    0.1920    0.9095    0.9712 N   0  0  0  0  0  0  0  0  0  0  0  0
   -1.1873    1.3249    1.2721 C   0  0  0  0  0  0  0  0  0  0  0  0
   -2.0249    0.1904    1.8427 C   0  0  0  0  0  0  0  0  0  0  0  0
   -1.8835   -1.0005    0.9838 N   0  0  0  0  0  0  0  0  0  0  0  0
   -0.5053   -1.4389    0.6822 C   0  0  0  0  0  0  0  0  0  0  0  0
    0.5271   -0.4878    1.2756 C   0  0  0  0  0  0  0  0  0  0  0  0
   -2.9927   -2.2324    1.2075 S   0  0  0  0  0  0  0  0  0  0  0  0
   -2.6778   -3.2682    0.2551 O   0  0  0  0  0  0  0  0  0  0  0  0
   -3.0607   -2.5029    2.6333 O   0  0  0  0  0  0  0  0  0  0  0  0
   -4.4874   -1.4211    0.7185 C   0  0  0  0  0  0  0  0  0  0  0  0
   -4.5688   -0.7506   -0.5066 C   0  0  0  0  0  0  0  0  0  0  0  0
   -5.7569   -0.0939   -0.8671 C   0  0  0  0  0  0  0  0  0  0  0  0
   -6.8588   -0.0978    0.0235 C   0  0  0  0  0  0  0  0  0  0  0  0
   -6.7398   -0.7501    1.2625 C   0  0  0  0  0  0  0  0  0  0  0  0
   -5.5538   -1.3964    1.6128 C   0  0  0  0  0  0  0  0  0  0  0  0
   -8.0480    0.5539   -0.3446 C   0  0  0  0  0  0  0  0  0  0  0  0
   -8.1397    1.2011   -1.5785 C   0  0  0  0  0  0  0  0  0  0  0  0
   -7.0578    1.2097   -2.4536 C   0  0  0  0  0  0  0  0  0  0  0  0
   -5.8711    0.5663   -2.1021 C   0  0  0  0  0  0  0  0  0  0  0  0
   -9.5998    1.9968   -2.0213 Cl  0  0  0  0  0  0  0  0  0  0  0  0
    7.6877   -2.8946   -2.4684 H   0  0  0  0  0  0  0  0  0  0  0  0
    5.4261   -2.0300   -1.9552 H   0  0  0  0  0  0  0  0  0  0  0  0
    7.3326    0.9737    0.4868 H   0  0  0  0  0  0  0  0  0  0  0  0
    9.4813   -0.0603   -0.0859 H   0  0  0  0  0  0  0  0  0  0  0  0
    5.3952    0.7365    1.5121 H   0  0  0  0  0  0  0  0  0  0  0  0
    5.1652    2.0408    0.3212 H   0  0  0  0  0  0  0  0  0  0  0  0
    3.0453    0.2907    1.6499 H   0  0  0  0  0  0  0  0  0  0  0  0
    3.2892    2.0039    1.9021 H   0  0  0  0  0  0  0  0  0  0  0  0
    2.7560    2.5245   -0.4127 H   0  0  0  0  0  0  0  0  0  0  0  0
    1.9829    0.8907   -2.0358 H   0  0  0  0  0  0  0  0  0  0  0  0
    2.1843   -0.4345   -0.9126 H   0  0  0  0  0  0  0  0  0  0  0  0
    4.3762    1.3900   -2.0052 H   0  0  0  0  0  0  0  0  0  0  0  0
    4.1376   -0.3204   -2.3677 H   0  0  0  0  0  0  0  0  0  0  0  0
   -1.6424    1.6977    0.3423 H   0  0  0  0  0  0  0  0  0  0  0  0
   -1.1449    2.1718    1.9652 H   0  0  0  0  0  0  0  0  0  0  0  0
   -1.7254   -0.0337    2.8718 H   0  0  0  0  0  0  0  0  0  0  0  0
   -3.0735    0.4860    1.8461 H   0  0  0  0  0  0  0  0  0  0  0  0
   -0.4005   -1.4710   -0.4104 H   0  0  0  0  0  0  0  0  0  0  0  0
   -0.3557   -2.4487    1.0704 H   0  0  0  0  0  0  0  0  0  0  0  0
    0.5494   -0.6039    2.3659 H   0  0  0  0  0  0  0  0  0  0  0  0
    1.5119   -0.7453    0.9114 H   0  0  0  0  0  0  0  0  0  0  0  0
   -3.7080   -0.7437   -1.1737 H   0  0  0  0  0  0  0  0  0  0  0  0
   -7.5721   -0.7615    1.9637 H   0  0  0  0  0  0  0  0  0  0  0  0
   -5.4631   -1.8913    2.5799 H   0  0  0  0  0  0  0  0  0  0  0  0
   -8.9063    0.5605    0.3265 H   0  0  0  0  0  0  0  0  0  0  0  0
   -7.1399    1.7193   -3.4162 H   0  0  0  0  0  0  0  0  0  0  0  0
   -5.0312    0.5775   -2.7958 H   0  0  0  0  0  0  0  0  0  0  0  0
  1  6  2  0  0  0  0
  2  3  2  0  0  0  0
  2  1  1  0  0  0  0
  3  4  1  0  0  0  0
  4  7  1  0  0  0  0
  4  5  2  0  0  0  0
  5 37  1  0  0  0  0
  6  5  1  0  0  0  0
  6 38  1  0  0  0  0
  7  8  1  0  0  0  0
  8  9  1  0  0  0  0
  8 39  1  0  0  0  0
  9 41  1  0  0  0  0
  9 42  1  0  0  0  0
 10 13  1  0  0  0  0
 10  9  1  0  0  0  0
 11 45  1  0  0  0  0
 11 10  1  0  0  0  0
 12 11  1  0  0  0  0
 12  7  1  0  0  0  0
 13 15  1  0  0  0  0
 14 13  2  0  0  0  0
 15 16  1  0  0  0  0
 15 20  1  0  0  0  0
 16 17  1  0  0  0  0
 16 49  1  0  0  0  0
 17 51  1  0  0  0  0
 17 50  1  0  0  0  0
 18 21  1  0  0  0  0
 18 17  1  0  0  0  0
 19 18  1  0  0  0  0
 19 53  1  0  0  0  0
 19 20  1  0  0  0  0
 20 54  1  0  0  0  0
 21 23  2  0  0  0  0
 22 21  2  0  0  0  0
 24 21  1  0  0  0  0
 24 29  2  0  0  0  0
 25 24  1  0  0  0  0
 26 25  2  0  0  0  0
 26 27  1  0  0  0  0
 27 28  2  0  0  0  0
 28 29  1  0  0  0  0
 28 57  1  0  0  0  0
 29 58  1  0  0  0  0
 30 27  1  0  0  0  0
 30 59  1  0  0  0  0
 31 30  2  0  0  0  0
 32 33  2  0  0  0  0
 32 31  1  0  0  0  0
 33 26  1  0  0  0  0
 34 31  1  0  0  0  0
 35  2  1  0  0  0  0
 36  3  1  0  0  0  0
 40  8  1  0  0  0  0
 43 10  1  0  0  0  0
 44 11  1  0  0  0  0
 46 12  1  0  0  0  0
 47 12  1  0  0  0  0
 48 16  1  0  0  0  0
 52 19  1  0  0  0  0
 55 20  1  0  0  0  0
 56 25  1  0  0  0  0
 60 32  1  0  0  0  0
 61 33  1  0  0  0  0
M  END
