47.9874
 OpenBabel10231816213D

 40 42  0  0  0  0  0  0  0  0999 V2000
    6.8888    1.0291    1.2929 O   0  0  0  0  0  0  0  0  0  0  0  0
    5.7908    1.5176    1.6056 C   0  0  0  0  0  0  0  0  0  0  0  0
    5.7012    2.8029    2.3797 C   0  0  0  0  0  0  0  0  0  0  0  0
    4.5300    0.8247    1.2116 C   0  0  0  0  0  0  0  0  0  0  0  0
    3.2672    1.3288    1.5338 C   0  0  0  0  0  0  0  0  0  0  0  0
    2.1098    0.6409    1.1421 C   0  0  0  0  0  0  0  0  0  0  0  0
    2.2010   -0.5529    0.4264 C   0  0  0  0  0  0  0  0  0  0  0  0
    3.4677   -1.0554    0.1046 C   0  0  0  0  0  0  0  0  0  0  0  0
    4.6237   -0.3713    0.4946 C   0  0  0  0  0  0  0  0  0  0  0  0
    1.0866   -1.3122    0.0091 N   0  0  0  0  0  0  0  0  0  0  0  0
   -0.2450   -1.0194    0.2090 C   0  0  0  0  0  0  0  0  0  0  0  0
   -0.6660   -0.0157    0.7583 O   0  0  0  0  0  0  0  0  0  0  0  0
   -1.1862   -2.0221   -0.3019 C   0  0  0  0  0  0  0  0  0  0  0  0
   -1.0340   -3.4328   -0.4098 C   0  0  0  0  0  0  0  0  0  0  0  0
   -2.1003   -4.0332   -0.9386 N   0  0  0  0  0  0  0  0  0  0  0  0
   -2.9455   -3.0205   -1.1700 N   0  0  0  0  0  0  0  0  0  0  0  0
   -2.4732   -1.7818   -0.7906 C   0  0  0  0  0  0  0  0  0  0  0  0
   -3.2973   -0.5831   -1.0182 C   0  0  0  0  0  0  0  0  0  0  0  0
   -3.8565   -0.4012   -2.3000 C   0  0  0  0  0  0  0  0  0  0  0  0
   -4.7437    0.6465   -2.5673 C   0  0  0  0  0  0  0  0  0  0  0  0
   -5.3915    0.8359   -4.1547 Cl  0  0  0  0  0  0  0  0  0  0  0  0
   -5.1039    1.5203   -1.5455 C   0  0  0  0  0  0  0  0  0  0  0  0
   -5.9805    2.5510   -1.7409 O   0  0  0  0  0  0  0  0  0  0  0  0
   -4.5701    1.3626   -0.2714 C   0  0  0  0  0  0  0  0  0  0  0  0
   -3.6618    0.3298   -0.0174 C   0  0  0  0  0  0  0  0  0  0  0  0
   -3.2228    0.2456    1.2753 O   0  0  0  0  0  0  0  0  0  0  0  0
    5.1694    3.5638    1.8027 H   0  0  0  0  0  0  0  0  0  0  0  0
    6.7150    3.1654    2.5817 H   0  0  0  0  0  0  0  0  0  0  0  0
    5.1933    2.6433    3.3344 H   0  0  0  0  0  0  0  0  0  0  0  0
    3.1521    2.2544    2.0888 H   0  0  0  0  0  0  0  0  0  0  0  0
    1.1435    1.0604    1.4067 H   0  0  0  0  0  0  0  0  0  0  0  0
    3.5662   -1.9857   -0.4502 H   0  0  0  0  0  0  0  0  0  0  0  0
    5.6077   -0.7644    0.2434 H   0  0  0  0  0  0  0  0  0  0  0  0
    1.3073   -2.1348   -0.5293 H   0  0  0  0  0  0  0  0  0  0  0  0
   -0.1967   -4.0595   -0.1186 H   0  0  0  0  0  0  0  0  0  0  0  0
   -3.8470   -3.2333   -1.5898 H   0  0  0  0  0  0  0  0  0  0  0  0
   -3.5997   -1.0905   -3.1008 H   0  0  0  0  0  0  0  0  0  0  0  0
   -6.2619    2.5362   -2.6749 H   0  0  0  0  0  0  0  0  0  0  0  0
   -4.8569    2.0379    0.5313 H   0  0  0  0  0  0  0  0  0  0  0  0
   -2.2809   -0.0272    1.2579 H   0  0  0  0  0  0  0  0  0  0  0  0
  1  2  2  0  0  0  0
  2  3  1  0  0  0  0
  3 28  1  0  0  0  0
  3 29  1  0  0  0  0
  4  5  1  0  0  0  0
  4  2  1  0  0  0  0
  5 30  1  0  0  0  0
  6 31  1  0  0  0  0
  6  5  2  0  0  0  0
  7  6  1  0  0  0  0
  8  7  2  0  0  0  0
  8  9  1  0  0  0  0
  9  4  2  0  0  0  0
 10 11  1  0  0  0  0
 10  7  1  0  0  0  0
 11 12  2  0  0  0  0
 13 11  1  0  0  0  0
 14 13  1  0  0  0  0
 14 35  1  0  0  0  0
 15 14  2  0  0  0  0
 16 15  1  0  0  0  0
 16 17  1  0  0  0  0
 17 13  2  0  0  0  0
 18 17  1  0  0  0  0
 18 25  2  0  0  0  0
 19 18  1  0  0  0  0
 20 19  2  0  0  0  0
 20 22  1  0  0  0  0
 21 20  1  0  0  0  0
 22 24  2  0  0  0  0
 23 22  1  0  0  0  0
 24 25  1  0  0  0  0
 24 39  1  0  0  0  0
 25 26  1  0  0  0  0
 27  3  1  0  0  0  0
 32  8  1  0  0  0  0
 33  9  1  0  0  0  0
 34 10  1  0  0  0  0
 36 16  1  0  0  0  0
 37 19  1  0  0  0  0
 38 23  1  0  0  0  0
 40 26  1  0  0  0  0
M  END
