52.4118
 OpenBabel10231816213D

 36 36  0  0  1  0  0  0  0  0999 V2000
    4.2005    1.2811   -0.7575 C   0  0  0  0  0  0  0  0  0  0  0  0
    4.0939   -0.1755   -1.1100 C   0  0  0  0  0  0  0  0  0  0  0  0
    3.7618    0.2868    0.2776 C   0  0  0  0  0  0  0  0  0  0  0  0
    2.3925    0.3235    0.7675 N   0  0  0  0  0  0  0  0  0  0  0  0
    1.6756   -0.9599    0.6436 C   0  0  0  0  0  0  0  0  0  0  0  0
    0.3392   -0.9032    1.4190 C   0  0  0  0  0  0  0  0  0  0  0  0
   -0.7554    0.0072    0.7849 C   0  0  1  0  0  0  0  0  0  0  0  0
   -0.3714    1.4317    0.8023 N   0  0  0  0  0  0  0  0  0  0  0  0
   -1.1110   -0.4476   -0.6464 C   0  0  0  0  0  0  0  0  0  0  0  0
   -2.3859    0.1695   -1.2370 C   0  0  0  0  0  0  0  0  0  0  0  0
   -3.6660   -0.2557   -0.5142 C   0  0  0  0  0  0  0  0  0  0  0  0
   -4.9018    0.3579   -1.1589 C   0  0  0  0  0  0  0  0  0  0  0  0
    0.6245   -0.4013    2.7308 O   0  0  0  0  0  0  0  0  0  0  0  0
   -0.1707   -2.2109    1.5803 O   0  0  0  0  0  0  0  0  0  0  0  0
    3.4668    1.9562   -1.1821 H   0  0  0  0  0  0  0  0  0  0  0  0
    5.1868    1.7138   -0.6463 H   0  0  0  0  0  0  0  0  0  0  0  0
    3.2917   -0.4779   -1.7727 H   0  0  0  0  0  0  0  0  0  0  0  0
    5.0069   -0.7448   -1.2363 H   0  0  0  0  0  0  0  0  0  0  0  0
    4.4929    0.0527    1.0530 H   0  0  0  0  0  0  0  0  0  0  0  0
    1.8176    1.0599    0.3357 H   0  0  0  0  0  0  0  0  0  0  0  0
    2.2952   -1.7524    1.0829 H   0  0  0  0  0  0  0  0  0  0  0  0
    1.5110   -1.2380   -0.4022 H   0  0  0  0  0  0  0  0  0  0  0  0
   -1.6444   -0.1022    1.4193 H   0  0  0  0  0  0  0  0  0  0  0  0
   -0.2671    1.7023    1.7837 H   0  0  0  0  0  0  0  0  0  0  0  0
   -1.1502    1.9931    0.4498 H   0  0  0  0  0  0  0  0  0  0  0  0
   -0.2792   -0.1937   -1.3159 H   0  0  0  0  0  0  0  0  0  0  0  0
   -1.2052   -1.5409   -0.6780 H   0  0  0  0  0  0  0  0  0  0  0  0
   -2.4509   -0.1472   -2.2850 H   0  0  0  0  0  0  0  0  0  0  0  0
   -2.3062    1.2612   -1.2476 H   0  0  0  0  0  0  0  0  0  0  0  0
   -3.6360    0.0531    0.5359 H   0  0  0  0  0  0  0  0  0  0  0  0
   -3.7561   -1.3477   -0.5290 H   0  0  0  0  0  0  0  0  0  0  0  0
   -5.0018    0.0430   -2.2024 H   0  0  0  0  0  0  0  0  0  0  0  0
   -4.8561    1.4514   -1.1330 H   0  0  0  0  0  0  0  0  0  0  0  0
   -5.8051    0.0466   -0.6240 H   0  0  0  0  0  0  0  0  0  0  0  0
    1.3923    0.1990    2.5688 H   0  0  0  0  0  0  0  0  0  0  0  0
    0.1712   -2.4911    2.4438 H   0  0  0  0  0  0  0  0  0  0  0  0
  1 16  1  0  0  0  0
  1  3  1  0  0  0  0
  2  1  1  0  0  0  0
  2  3  1  0  0  0  0
  3  4  1  0  0  0  0
  3 19  1  0  0  0  0
  5  4  1  0  0  0  0
  5 21  1  0  0  0  0
  5  6  1  0  0  0  0
  6 14  1  0  0  0  0
  6 13  1  0  0  0  0
  7  8  1  0  0  0  0
  7  6  1  0  0  0  0
  7 23  1  1  0  0  0
  8 24  1  0  0  0  0
  9  7  1  0  0  0  0
 10  9  1  0  0  0  0
 10 11  1  0  0  0  0
 11 30  1  0  0  0  0
 12 33  1  0  0  0  0
 12 34  1  0  0  0  0
 12 11  1  0  0  0  0
 14 36  1  0  0  0  0
 15  1  1  0  0  0  0
 17  2  1  0  0  0  0
 18  2  1  0  0  0  0
 20  4  1  0  0  0  0
 22  5  1  0  0  0  0
 25  8  1  0  0  0  0
 26  9  1  0  0  0  0
 27  9  1  0  0  0  0
 28 10  1  0  0  0  0
 29 10  1  0  0  0  0
 31 11  1  0  0  0  0
 32 12  1  0  0  0  0
 35 13  1  0  0  0  0
M  END
