58.7228
 OpenBabel10231816213D

 36 36  0  0  1  0  0  0  0  0999 V2000
    4.5120    1.5600    0.6331 C   0  0  0  0  0  0  0  0  0  0  0  0
    4.3778    0.2418   -0.0651 C   0  0  0  0  0  0  0  0  0  0  0  0
    3.2149    0.8222    0.6896 C   0  0  0  0  0  0  0  0  0  0  0  0
    2.0805    1.3629   -0.0565 N   0  0  0  0  0  0  0  0  0  0  0  0
    1.2643    0.3224   -0.6993 C   0  0  0  0  0  0  0  0  0  0  0  0
    0.4611   -0.5796    0.2796 C   0  0  0  0  0  0  0  0  0  0  0  0
   -0.5072   -1.5388   -0.4974 C   0  0  1  0  0  0  0  0  0  0  0  0
   -1.3101   -2.3668    0.4359 N   0  0  0  0  0  0  0  0  0  0  0  0
   -1.4535   -0.8327   -1.5027 C   0  0  0  0  0  0  0  0  0  0  0  0
   -2.3483    0.3312   -1.0411 C   0  0  0  0  0  0  0  0  0  0  0  0
   -3.3902   -0.0337    0.0150 C   0  0  0  0  0  0  0  0  0  0  0  0
   -4.4237    1.0696    0.1905 C   0  0  0  0  0  0  0  0  0  0  0  0
    1.3685   -1.3666    1.0440 O   0  0  0  0  0  0  0  0  0  0  0  0
   -0.2650    0.1800    1.2350 O   0  0  0  0  0  0  0  0  0  0  0  0
    5.1068    1.6080    1.5379 H   0  0  0  0  0  0  0  0  0  0  0  0
    4.5410    2.4634    0.0282 H   0  0  0  0  0  0  0  0  0  0  0  0
    4.8575   -0.6284    0.3643 H   0  0  0  0  0  0  0  0  0  0  0  0
    4.3232    0.2355   -1.1466 H   0  0  0  0  0  0  0  0  0  0  0  0
    2.9773    0.3569    1.6429 H   0  0  0  0  0  0  0  0  0  0  0  0
    1.4869    1.9452    0.5301 H   0  0  0  0  0  0  0  0  0  0  0  0
    0.5877    0.8732   -1.3567 H   0  0  0  0  0  0  0  0  0  0  0  0
    1.8987   -0.3021   -1.3440 H   0  0  0  0  0  0  0  0  0  0  0  0
    0.1093   -2.2209   -1.0790 H   0  0  0  0  0  0  0  0  0  0  0  0
   -1.5582   -1.7748    1.2316 H   0  0  0  0  0  0  0  0  0  0  0  0
   -0.7086   -3.0917    0.8039 H   0  0  0  0  0  0  0  0  0  0  0  0
   -0.8470   -0.4606   -2.3407 H   0  0  0  0  0  0  0  0  0  0  0  0
   -2.0967   -1.5986   -1.9558 H   0  0  0  0  0  0  0  0  0  0  0  0
   -2.8724    0.7048   -1.9323 H   0  0  0  0  0  0  0  0  0  0  0  0
   -1.7381    1.1693   -0.6871 H   0  0  0  0  0  0  0  0  0  0  0  0
   -3.8981   -0.9638   -0.2637 H   0  0  0  0  0  0  0  0  0  0  0  0
   -2.9066   -0.1962    0.9828 H   0  0  0  0  0  0  0  0  0  0  0  0
   -5.1405    0.8001    0.9732 H   0  0  0  0  0  0  0  0  0  0  0  0
   -4.9827    1.2357   -0.7357 H   0  0  0  0  0  0  0  0  0  0  0  0
   -3.9475    2.0124    0.4788 H   0  0  0  0  0  0  0  0  0  0  0  0
    0.8246   -1.8006    1.7253 H   0  0  0  0  0  0  0  0  0  0  0  0
    0.4025    0.4612    1.8817 H   0  0  0  0  0  0  0  0  0  0  0  0
  1  3  1  0  0  0  0
  1 15  1  0  0  0  0
  2 17  1  0  0  0  0
  2  1  1  0  0  0  0
  2  3  1  0  0  0  0
  3 19  1  0  0  0  0
  4 20  1  0  0  0  0
  4  3  1  0  0  0  0
  5  4  1  0  0  0  0
  5  6  1  0  0  0  0
  6 13  1  0  0  0  0
  6 14  1  0  0  0  0
  7 23  1  6  0  0  0
  7  6  1  0  0  0  0
  7  8  1  0  0  0  0
  8 25  1  0  0  0  0
  8 24  1  0  0  0  0
  9 10  1  0  0  0  0
  9  7  1  0  0  0  0
 10 29  1  0  0  0  0
 10 11  1  0  0  0  0
 11 12  1  0  0  0  0
 11 31  1  0  0  0  0
 12 34  1  0  0  0  0
 12 32  1  0  0  0  0
 13 35  1  0  0  0  0
 14 36  1  0  0  0  0
 16  1  1  0  0  0  0
 18  2  1  0  0  0  0
 21  5  1  0  0  0  0
 22  5  1  0  0  0  0
 26  9  1  0  0  0  0
 27  9  1  0  0  0  0
 28 10  1  0  0  0  0
 30 11  1  0  0  0  0
 33 12  1  0  0  0  0
M  END
