44.879
 OpenBabel10231816213D

 36 36  0  0  1  0  0  0  0  0999 V2000
    5.3186    0.4839    0.6433 C   0  0  0  0  0  0  0  0  0  0  0  0
    4.7524    0.3696   -0.7418 C   0  0  0  0  0  0  0  0  0  0  0  0
    3.9458    1.0191    0.3466 C   0  0  0  0  0  0  0  0  0  0  0  0
    2.8103    0.2986    0.8957 N   0  0  0  0  0  0  0  0  0  0  0  0
    1.6092    0.3540    0.0393 C   0  0  0  0  0  0  0  0  0  0  0  0
    0.5787   -0.6377    0.6344 C   0  0  0  0  0  0  0  0  0  0  0  0
   -0.7243   -0.8136   -0.2067 C   0  0  1  0  0  0  0  0  0  0  0  0
   -1.5999   -1.7359    0.5631 N   0  0  0  0  0  0  0  0  0  0  0  0
   -1.4284    0.5256   -0.5062 C   0  0  0  0  0  0  0  0  0  0  0  0
   -2.8265    0.3988   -1.1291 C   0  0  0  0  0  0  0  0  0  0  0  0
   -3.9387    0.4120   -0.0754 C   0  0  0  0  0  0  0  0  0  0  0  0
   -5.3016    0.1494   -0.6934 C   0  0  0  0  0  0  0  0  0  0  0  0
    0.2327   -0.2136    1.9528 O   0  0  0  0  0  0  0  0  0  0  0  0
    1.2091   -1.9144    0.7692 O   0  0  0  0  0  0  0  0  0  0  0  0
    5.3945   -0.4186    1.2381 H   0  0  0  0  0  0  0  0  0  0  0  0
    6.1182    1.1961    0.8117 H   0  0  0  0  0  0  0  0  0  0  0  0
    5.1566    1.0078   -1.5188 H   0  0  0  0  0  0  0  0  0  0  0  0
    4.4462   -0.6118   -1.0866 H   0  0  0  0  0  0  0  0  0  0  0  0
    3.8453    2.1027    0.3088 H   0  0  0  0  0  0  0  0  0  0  0  0
    2.5469    0.6331    1.8261 H   0  0  0  0  0  0  0  0  0  0  0  0
    1.2194    1.3786    0.0247 H   0  0  0  0  0  0  0  0  0  0  0  0
    1.8653    0.0461   -0.9806 H   0  0  0  0  0  0  0  0  0  0  0  0
   -0.4746   -1.3095   -1.1521 H   0  0  0  0  0  0  0  0  0  0  0  0
   -1.0535   -2.5924    0.7120 H   0  0  0  0  0  0  0  0  0  0  0  0
   -2.3927   -2.0133   -0.0115 H   0  0  0  0  0  0  0  0  0  0  0  0
   -1.4763    1.1542    0.3917 H   0  0  0  0  0  0  0  0  0  0  0  0
   -0.8026    1.0682   -1.2268 H   0  0  0  0  0  0  0  0  0  0  0  0
   -2.8866   -0.4994   -1.7558 H   0  0  0  0  0  0  0  0  0  0  0  0
   -2.9871    1.2543   -1.7973 H   0  0  0  0  0  0  0  0  0  0  0  0
   -3.9545    1.3862    0.4264 H   0  0  0  0  0  0  0  0  0  0  0  0
   -3.7639   -0.3373    0.7008 H   0  0  0  0  0  0  0  0  0  0  0  0
   -5.3331   -0.8361   -1.1716 H   0  0  0  0  0  0  0  0  0  0  0  0
   -6.0778    0.1732    0.0782 H   0  0  0  0  0  0  0  0  0  0  0  0
   -5.5465    0.9055   -1.4453 H   0  0  0  0  0  0  0  0  0  0  0  0
   -0.6051   -0.7048    2.1101 H   0  0  0  0  0  0  0  0  0  0  0  0
    2.1246   -1.6785    1.0259 H   0  0  0  0  0  0  0  0  0  0  0  0
  1 16  1  0  0  0  0
  1 15  1  0  0  0  0
  2  3  1  0  0  0  0
  2  1  1  0  0  0  0
  3  1  1  0  0  0  0
  3  4  1  0  0  0  0
  4 20  1  0  0  0  0
  5  6  1  0  0  0  0
  5  4  1  0  0  0  0
  6 14  1  0  0  0  0
  6 13  1  0  0  0  0
  7 23  1  6  0  0  0
  7  8  1  0  0  0  0
  7  6  1  0  0  0  0
  8 24  1  0  0  0  0
  9  7  1  0  0  0  0
  9 26  1  0  0  0  0
 10  9  1  0  0  0  0
 10 11  1  0  0  0  0
 11 30  1  0  0  0  0
 11 31  1  0  0  0  0
 12 11  1  0  0  0  0
 12 33  1  0  0  0  0
 13 35  1  0  0  0  0
 14 36  1  0  0  0  0
 17  2  1  0  0  0  0
 18  2  1  0  0  0  0
 19  3  1  0  0  0  0
 21  5  1  0  0  0  0
 22  5  1  0  0  0  0
 25  8  1  0  0  0  0
 27  9  1  0  0  0  0
 28 10  1  0  0  0  0
 29 10  1  0  0  0  0
 32 12  1  0  0  0  0
 34 12  1  0  0  0  0
M  END
