omegapdb_1xom_11.xyz
 OpenBabel11041815263D

 50 52  0  0  1  0  0  0  0  0999 V2000
    6.6550    1.3093   -1.0285 O   0  0  0  0  0  0  0  0  0  0  0  0
    5.9191    0.5112   -0.2174 C   0  0  0  0  0  0  0  0  0  0  0  0
    6.2728    0.2148    0.9014 O   0  0  0  0  0  0  0  0  0  0  0  0
    4.6318    0.1037   -0.8834 C   0  0  1  0  0  0  0  0  0  0  0  0
    3.8845   -0.9465   -0.0542 C   0  0  0  0  0  0  0  0  0  0  0  0
    2.9658   -0.2664    0.9528 C   0  0  0  0  0  0  0  0  0  0  0  0
    1.8159    0.4850    0.2360 C   0  0  2  0  0  0  0  0  0  0  0  0
    2.3001    0.9647   -1.1621 C   0  0  0  0  0  0  0  0  0  0  0  0
    3.7657    1.3661   -1.1077 C   0  0  0  0  0  0  0  0  0  0  0  0
    1.4885    1.6724    1.0293 C   0  0  0  0  0  0  0  0  0  0  0  0
    1.2459    2.6374    1.6511 N   0  0  0  0  0  0  0  0  0  0  0  0
    0.5528   -0.3403    0.0554 C   0  0  0  0  0  0  0  0  0  0  0  0
    0.5395   -1.7300    0.1445 C   0  0  0  0  0  0  0  0  0  0  0  0
   -0.6342   -2.4481   -0.0996 C   0  0  0  0  0  0  0  0  0  0  0  0
   -1.8159   -1.7900   -0.4386 C   0  0  0  0  0  0  0  0  0  0  0  0
   -2.9979   -2.4058   -0.7048 O   0  0  0  0  0  0  0  0  0  0  0  0
   -3.0002   -3.8221   -0.6206 C   0  0  0  0  0  0  0  0  0  0  0  0
   -1.8164   -0.3820   -0.5131 C   0  0  0  0  0  0  0  0  0  0  0  0
   -0.6388    0.3136   -0.2752 C   0  0  0  0  0  0  0  0  0  0  0  0
   -2.9203    0.3350   -0.8632 O   0  0  0  0  0  0  0  0  0  0  0  0
   -4.1057    0.1738   -0.0420 C   0  0  0  0  0  0  0  0  0  0  0  0
   -4.8800    1.4653   -0.2279 C   0  0  0  0  0  0  0  0  0  0  0  0
   -4.0954    2.4886    0.6107 C   0  0  0  0  0  0  0  0  0  0  0  0
   -3.3801    1.6625    1.7103 C   0  0  0  0  0  0  0  0  0  0  0  0
   -3.7619    0.1974    1.4387 C   0  0  0  0  0  0  0  0  0  0  0  0
    7.4381    1.5536   -0.5120 H   0  0  0  0  0  0  0  0  0  0  0  0
    4.8916   -0.3068   -1.8605 H   0  0  0  0  0  0  0  0  0  0  0  0
    3.3045   -1.5852   -0.7207 H   0  0  0  0  0  0  0  0  0  0  0  0
    4.6031   -1.5780    0.4656 H   0  0  0  0  0  0  0  0  0  0  0  0
    2.5465   -0.9723    1.6684 H   0  0  0  0  0  0  0  0  0  0  0  0
    3.5559    0.4447    1.5313 H   0  0  0  0  0  0  0  0  0  0  0  0
    1.6681    1.7873   -1.4964 H   0  0  0  0  0  0  0  0  0  0  0  0
    2.1592    0.1436   -1.8677 H   0  0  0  0  0  0  0  0  0  0  0  0
    3.9104    2.0779   -0.2907 H   0  0  0  0  0  0  0  0  0  0  0  0
    4.0748    1.8711   -2.0206 H   0  0  0  0  0  0  0  0  0  0  0  0
    1.4313   -2.2795    0.4082 H   0  0  0  0  0  0  0  0  0  0  0  0
   -0.6114   -3.5246   -0.0262 H   0  0  0  0  0  0  0  0  0  0  0  0
   -2.7456   -4.1585    0.3855 H   0  0  0  0  0  0  0  0  0  0  0  0
   -2.3043   -4.2603   -1.3374 H   0  0  0  0  0  0  0  0  0  0  0  0
   -4.0112   -4.1319   -0.8620 H   0  0  0  0  0  0  0  0  0  0  0  0
   -0.6827    1.3943   -0.3355 H   0  0  0  0  0  0  0  0  0  0  0  0
   -4.6402   -0.7202   -0.3549 H   0  0  0  0  0  0  0  0  0  0  0  0
   -5.8870    1.3242    0.1680 H   0  0  0  0  0  0  0  0  0  0  0  0
   -4.9612    1.7366   -1.2788 H   0  0  0  0  0  0  0  0  0  0  0  0
   -3.3637    2.9967   -0.0133 H   0  0  0  0  0  0  0  0  0  0  0  0
   -4.7498    3.2505    1.0293 H   0  0  0  0  0  0  0  0  0  0  0  0
   -2.3007    1.7906    1.6443 H   0  0  0  0  0  0  0  0  0  0  0  0
   -3.6758    1.9694    2.7116 H   0  0  0  0  0  0  0  0  0  0  0  0
   -4.6612   -0.0813    1.9911 H   0  0  0  0  0  0  0  0  0  0  0  0
   -2.9789   -0.5112    1.7070 H   0  0  0  0  0  0  0  0  0  0  0  0
  1 26  1  0  0  0  0
  1  2  1  0  0  0  0
  2  3  2  0  0  0  0
  4 27  1  6  0  0  0
  4  2  1  0  0  0  0
  4  5  1  0  0  0  0
  5 29  1  0  0  0  0
  5  6  1  0  0  0  0
  6 31  1  0  0  0  0
  6 30  1  0  0  0  0
  7 12  1  6  0  0  0
  7  6  1  0  0  0  0
  7 10  1  0  0  0  0
  8  9  1  0  0  0  0
  8  7  1  0  0  0  0
  9  4  1  0  0  0  0
  9 34  1  0  0  0  0
 10 11  3  0  0  0  0
 12 13  1  0  0  0  0
 13 36  1  0  0  0  0
 14 37  1  0  0  0  0
 14 13  2  0  0  0  0
 15 14  1  0  0  0  0
 16 17  1  0  0  0  0
 16 15  1  0  0  0  0
 17 38  1  0  0  0  0
 18 15  2  0  0  0  0
 18 19  1  0  0  0  0
 19 12  2  0  0  0  0
 20 18  1  0  0  0  0
 20 21  1  0  0  0  0
 21 25  1  0  0  0  0
 22 21  1  0  0  0  0
 22 43  1  0  0  0  0
 22 23  1  0  0  0  0
 23 46  1  0  0  0  0
 23 24  1  0  0  0  0
 24 48  1  0  0  0  0
 25 50  1  0  0  0  0
 25 24  1  0  0  0  0
 25 49  1  0  0  0  0
 28  5  1  0  0  0  0
 32  8  1  0  0  0  0
 33  8  1  0  0  0  0
 35  9  1  0  0  0  0
 39 17  1  0  0  0  0
 40 17  1  0  0  0  0
 41 19  1  0  0  0  0
 42 21  1  0  0  0  0
 44 22  1  0  0  0  0
 45 23  1  0  0  0  0
 47 24  1  0  0  0  0
M  END
