omegapdb_1m5f_06.xyz
 OpenBabel11041815263D

 25 25  0  0  1  0  0  0  0  0999 V2000
   -1.7752   -3.6877   -0.3658 O   0  0  0  0  0  0  0  0  0  0  0  0
   -0.9196   -2.6548   -0.4379 C   0  0  0  0  0  0  0  0  0  0  0  0
    0.2600   -2.7758   -0.7056 O   0  0  0  0  0  0  0  0  0  0  0  0
   -1.5521   -1.3570   -0.1561 C   0  0  0  0  0  0  0  0  0  0  0  0
   -2.7982   -1.2850    0.3161 N   0  0  0  0  0  0  0  0  0  0  0  0
   -3.0280    0.0565    0.4871 O   0  0  0  0  0  0  0  0  0  0  0  0
   -1.9372    0.7703    0.1216 C   0  0  0  0  0  0  0  0  0  0  0  0
   -0.9557   -0.0829   -0.3074 C   0  0  0  0  0  0  0  0  0  0  0  0
    0.4158    0.2597   -0.7668 C   0  0  0  0  0  0  0  0  0  0  0  0
    1.4194    0.1810    0.3983 C   0  0  2  0  0  0  0  0  0  0  0  0
    1.0596    1.1525    1.4179 N   0  0  0  0  0  0  0  0  0  0  0  0
    2.8012    0.4213   -0.1751 C   0  0  0  0  0  0  0  0  0  0  0  0
    3.3782    1.4862   -0.1486 O   0  0  0  0  0  0  0  0  0  0  0  0
    3.3028   -0.6792   -0.7707 O   0  0  0  0  0  0  0  0  0  0  0  0
   -2.0145    2.2390    0.2863 C   0  0  0  0  0  0  0  0  0  0  0  0
   -1.2403   -4.4742   -0.5531 H   0  0  0  0  0  0  0  0  0  0  0  0
    0.4312    1.2802   -1.1571 H   0  0  0  0  0  0  0  0  0  0  0  0
    0.7303   -0.4174   -1.5582 H   0  0  0  0  0  0  0  0  0  0  0  0
    1.3786   -0.8271    0.8070 H   0  0  0  0  0  0  0  0  0  0  0  0
    1.4518    2.0486    1.1432 H   0  0  0  0  0  0  0  0  0  0  0  0
    1.5192    0.9163    2.2890 H   0  0  0  0  0  0  0  0  0  0  0  0
    4.1547   -0.4112   -1.1485 H   0  0  0  0  0  0  0  0  0  0  0  0
   -1.7718    2.5193    1.3100 H   0  0  0  0  0  0  0  0  0  0  0  0
   -1.2971    2.7228   -0.3722 H   0  0  0  0  0  0  0  0  0  0  0  0
   -3.0129    2.5983    0.0467 H   0  0  0  0  0  0  0  0  0  0  0  0
  2  1  1  0  0  0  0
  2  4  1  0  0  0  0
  3  2  2  0  0  0  0
  4  5  2  0  0  0  0
  5  6  1  0  0  0  0
  7 15  1  0  0  0  0
  7  6  1  0  0  0  0
  8  4  1  0  0  0  0
  8  7  2  0  0  0  0
  9  8  1  0  0  0  0
  9 10  1  0  0  0  0
 10 19  1  1  0  0  0
 10 11  1  0  0  0  0
 11 21  1  0  0  0  0
 12 13  2  0  0  0  0
 12 10  1  0  0  0  0
 14 12  1  0  0  0  0
 15 23  1  0  0  0  0
 16  1  1  0  0  0  0
 17  9  1  0  0  0  0
 18  9  1  0  0  0  0
 20 11  1  0  0  0  0
 22 14  1  0  0  0  0
 24 15  1  0  0  0  0
 25 15  1  0  0  0  0
M  END
