omegapdb_1v2k_09.xyz
 OpenBabel11041815263D

 61 65  0  0  0  0  0  0  0  0999 V2000
    8.7900    1.3586   -1.0918 N   0  0  0  0  0  0  0  0  0  0  0  0
    8.3277    0.1374   -0.7806 C   0  0  0  0  0  0  0  0  0  0  0  0
    6.9851   -0.2017   -0.7146 C   0  0  0  0  0  0  0  0  0  0  0  0
    6.0057    0.7680   -0.9809 C   0  0  0  0  0  0  0  0  0  0  0  0
    6.4813    2.0455   -1.3039 C   0  0  0  0  0  0  0  0  0  0  0  0
    7.8536    2.2774   -1.3484 C   0  0  0  0  0  0  0  0  0  0  0  0
    4.6470    0.4392   -0.9598 N   0  0  0  0  0  0  0  0  0  0  0  0
    4.1948   -0.2946    0.2200 C   0  0  0  0  0  0  0  0  0  0  0  0
    2.8303   -0.9196   -0.0146 C   0  0  0  0  0  0  0  0  0  0  0  0
    1.8122    0.1554   -0.4006 C   0  0  0  0  0  0  0  0  0  0  0  0
    2.3352    0.9101   -1.6131 C   0  0  0  0  0  0  0  0  0  0  0  0
    3.7146    1.4893   -1.3413 C   0  0  0  0  0  0  0  0  0  0  0  0
    0.4639   -0.4734   -0.7031 C   0  0  0  0  0  0  0  0  0  0  0  0
    0.0580   -0.6040   -1.8554 O   0  0  0  0  0  0  0  0  0  0  0  0
   -0.2693   -0.9467    0.3499 N   0  0  0  0  0  0  0  0  0  0  0  0
    0.0342   -0.7730    1.7603 C   0  0  0  0  0  0  0  0  0  0  0  0
   -1.2448   -0.4593    2.5160 C   0  0  0  0  0  0  0  0  0  0  0  0
   -2.1343   -1.6264    2.4296 N   0  0  0  0  0  0  0  0  0  0  0  0
   -1.9675   -2.4445    1.2182 C   0  0  0  0  0  0  0  0  0  0  0  0
   -1.5330   -1.6089    0.0302 C   0  0  0  0  0  0  0  0  0  0  0  0
   -3.6893   -1.3778    2.9505 S   0  0  0  0  0  0  0  0  0  0  0  0
   -3.5816   -0.5487    4.1322 O   0  0  0  0  0  0  0  0  0  0  0  0
   -4.3412   -2.6691    2.9585 O   0  0  0  0  0  0  0  0  0  0  0  0
   -4.4274   -0.4089    1.6619 C   0  0  0  0  0  0  0  0  0  0  0  0
   -5.0633   -1.0557    0.6213 C   0  0  0  0  0  0  0  0  0  0  0  0
   -5.5391   -0.3115   -0.4785 C   0  0  0  0  0  0  0  0  0  0  0  0
   -5.3498    1.1074   -0.4973 C   0  0  0  0  0  0  0  0  0  0  0  0
   -4.7174    1.7324    0.6031 C   0  0  0  0  0  0  0  0  0  0  0  0
   -4.2591    0.9928    1.6710 C   0  0  0  0  0  0  0  0  0  0  0  0
   -5.8155    1.8533   -1.6023 C   0  0  0  0  0  0  0  0  0  0  0  0
   -6.4423    1.2094   -2.6444 C   0  0  0  0  0  0  0  0  0  0  0  0
   -6.6377   -0.1874   -2.6378 C   0  0  0  0  0  0  0  0  0  0  0  0
   -6.1935   -0.9307   -1.5696 C   0  0  0  0  0  0  0  0  0  0  0  0
   -7.0125    2.1196   -4.0023 Cl  0  0  0  0  0  0  0  0  0  0  0  0
    9.0780   -0.6182   -0.5817 H   0  0  0  0  0  0  0  0  0  0  0  0
    6.7124   -1.2229   -0.4921 H   0  0  0  0  0  0  0  0  0  0  0  0
    5.8110    2.8655   -1.5079 H   0  0  0  0  0  0  0  0  0  0  0  0
    8.2145    3.2684   -1.5969 H   0  0  0  0  0  0  0  0  0  0  0  0
    4.1416    0.3860    1.0857 H   0  0  0  0  0  0  0  0  0  0  0  0
    4.9196   -1.0663    0.4607 H   0  0  0  0  0  0  0  0  0  0  0  0
    2.5228   -1.4532    0.8861 H   0  0  0  0  0  0  0  0  0  0  0  0
    2.8980   -1.6454   -0.8278 H   0  0  0  0  0  0  0  0  0  0  0  0
    1.7212    0.8608    0.4311 H   0  0  0  0  0  0  0  0  0  0  0  0
    1.6497    1.7128   -1.8851 H   0  0  0  0  0  0  0  0  0  0  0  0
    2.3840    0.2280   -2.4606 H   0  0  0  0  0  0  0  0  0  0  0  0
    4.0860    1.9613   -2.2489 H   0  0  0  0  0  0  0  0  0  0  0  0
    3.6528    2.2661   -0.5612 H   0  0  0  0  0  0  0  0  0  0  0  0
    0.4990   -1.6675    2.1856 H   0  0  0  0  0  0  0  0  0  0  0  0
    0.7264    0.0533    1.8914 H   0  0  0  0  0  0  0  0  0  0  0  0
   -1.0342   -0.2543    3.5625 H   0  0  0  0  0  0  0  0  0  0  0  0
   -1.6989    0.4315    2.0682 H   0  0  0  0  0  0  0  0  0  0  0  0
   -2.9062   -2.9516    1.0084 H   0  0  0  0  0  0  0  0  0  0  0  0
   -1.2271   -3.2197    1.4212 H   0  0  0  0  0  0  0  0  0  0  0  0
   -2.2991   -0.8715   -0.2260 H   0  0  0  0  0  0  0  0  0  0  0  0
   -1.3812   -2.2349   -0.8475 H   0  0  0  0  0  0  0  0  0  0  0  0
   -5.2160   -2.1266    0.6631 H   0  0  0  0  0  0  0  0  0  0  0  0
   -4.6036    2.8092    0.6001 H   0  0  0  0  0  0  0  0  0  0  0  0
   -3.8104    1.4684    2.5316 H   0  0  0  0  0  0  0  0  0  0  0  0
   -5.6796    2.9262   -1.6279 H   0  0  0  0  0  0  0  0  0  0  0  0
   -7.1352   -0.6565   -3.4744 H   0  0  0  0  0  0  0  0  0  0  0  0
   -6.3404   -2.0031   -1.5565 H   0  0  0  0  0  0  0  0  0  0  0  0
  1  2  2  0  0  0  0
  2  3  1  0  0  0  0
  2 35  1  0  0  0  0
  3 36  1  0  0  0  0
  4  7  1  0  0  0  0
  4  3  2  0  0  0  0
  5  4  1  0  0  0  0
  6  5  2  0  0  0  0
  6  1  1  0  0  0  0
  7  8  1  0  0  0  0
  8 40  1  0  0  0  0
  8 39  1  0  0  0  0
  9  8  1  0  0  0  0
  9 41  1  0  0  0  0
 10  9  1  0  0  0  0
 10 43  1  0  0  0  0
 11 12  1  0  0  0  0
 11 10  1  0  0  0  0
 12  7  1  0  0  0  0
 12 47  1  0  0  0  0
 13 10  1  0  0  0  0
 13 15  1  0  0  0  0
 14 13  2  0  0  0  0
 15 16  1  0  0  0  0
 16 49  1  0  0  0  0
 16 48  1  0  0  0  0
 16 17  1  0  0  0  0
 17 50  1  0  0  0  0
 18 17  1  0  0  0  0
 18 21  1  0  0  0  0
 19 53  1  0  0  0  0
 19 18  1  0  0  0  0
 20 15  1  0  0  0  0
 20 19  1  0  0  0  0
 21 23  2  0  0  0  0
 21 22  2  0  0  0  0
 24 29  1  0  0  0  0
 24 21  1  0  0  0  0
 25 56  1  0  0  0  0
 25 24  2  0  0  0  0
 26 25  1  0  0  0  0
 27 26  1  0  0  0  0
 27 28  1  0  0  0  0
 28 29  2  0  0  0  0
 29 58  1  0  0  0  0
 30 27  2  0  0  0  0
 31 32  2  0  0  0  0
 31 30  1  0  0  0  0
 32 33  1  0  0  0  0
 33 61  1  0  0  0  0
 33 26  2  0  0  0  0
 34 31  1  0  0  0  0
 37  5  1  0  0  0  0
 38  6  1  0  0  0  0
 42  9  1  0  0  0  0
 44 11  1  0  0  0  0
 45 11  1  0  0  0  0
 46 12  1  0  0  0  0
 51 17  1  0  0  0  0
 52 19  1  0  0  0  0
 54 20  1  0  0  0  0
 55 20  1  0  0  0  0
 57 28  1  0  0  0  0
 59 30  1  0  0  0  0
 60 32  1  0  0  0  0
M  END
