omegapdb_2byh_11.xyz
 OpenBabel11041815263D

 40 42  0  0  0  0  0  0  0  0999 V2000
    6.8701    1.0628    1.6869 O   0  0  0  0  0  0  0  0  0  0  0  0
    5.7722    1.4404    2.0697 C   0  0  0  0  0  0  0  0  0  0  0  0
    5.6401    2.5698    3.0622 C   0  0  0  0  0  0  0  0  0  0  0  0
    4.5260    0.7986    1.5644 C   0  0  0  0  0  0  0  0  0  0  0  0
    3.2518    1.1978    1.9744 C   0  0  0  0  0  0  0  0  0  0  0  0
    2.1040    0.5815    1.4851 C   0  0  0  0  0  0  0  0  0  0  0  0
    2.2283   -0.4625    0.5616 C   0  0  0  0  0  0  0  0  0  0  0  0
    3.5062   -0.8678    0.1477 C   0  0  0  0  0  0  0  0  0  0  0  0
    4.6389   -0.2463    0.6406 C   0  0  0  0  0  0  0  0  0  0  0  0
    1.1359   -1.1474    0.0201 N   0  0  0  0  0  0  0  0  0  0  0  0
   -0.2067   -0.9127    0.2157 C   0  0  0  0  0  0  0  0  0  0  0  0
   -0.6499   -0.0003    0.9002 O   0  0  0  0  0  0  0  0  0  0  0  0
   -1.0538   -1.9054   -0.4770 C   0  0  0  0  0  0  0  0  0  0  0  0
   -0.7580   -3.2688   -0.6616 C   0  0  0  0  0  0  0  0  0  0  0  0
   -1.7743   -3.9289   -1.2396 N   0  0  0  0  0  0  0  0  0  0  0  0
   -2.6964   -2.9858   -1.4289 N   0  0  0  0  0  0  0  0  0  0  0  0
   -2.3470   -1.7442   -0.9929 C   0  0  0  0  0  0  0  0  0  0  0  0
   -3.2119   -0.5821   -1.1686 C   0  0  0  0  0  0  0  0  0  0  0  0
   -2.6662    0.7051   -1.2262 C   0  0  0  0  0  0  0  0  0  0  0  0
   -3.4595    1.8289   -1.3865 C   0  0  0  0  0  0  0  0  0  0  0  0
   -2.7391    3.3945   -1.4487 Cl  0  0  0  0  0  0  0  0  0  0  0  0
   -4.8468    1.7037   -1.5035 C   0  0  0  0  0  0  0  0  0  0  0  0
   -5.5888    2.8312   -1.6572 O   0  0  0  0  0  0  0  0  0  0  0  0
   -5.4007    0.4278   -1.4664 C   0  0  0  0  0  0  0  0  0  0  0  0
   -4.6020   -0.6992   -1.3068 C   0  0  0  0  0  0  0  0  0  0  0  0
   -5.1557   -1.9589   -1.2838 O   0  0  0  0  0  0  0  0  0  0  0  0
    5.0606    3.3880    2.6363 H   0  0  0  0  0  0  0  0  0  0  0  0
    6.6329    2.9216    3.3229 H   0  0  0  0  0  0  0  0  0  0  0  0
    5.1228    2.2324    3.9596 H   0  0  0  0  0  0  0  0  0  0  0  0
    3.1362    2.0027    2.6864 H   0  0  0  0  0  0  0  0  0  0  0  0
    1.1248    0.8984    1.8008 H   0  0  0  0  0  0  0  0  0  0  0  0
    3.6017   -1.6771   -0.5666 H   0  0  0  0  0  0  0  0  0  0  0  0
    5.6257   -0.5538    0.3247 H   0  0  0  0  0  0  0  0  0  0  0  0
    1.3567   -1.8619   -0.6553 H   0  0  0  0  0  0  0  0  0  0  0  0
    0.1195   -3.8138   -0.3548 H   0  0  0  0  0  0  0  0  0  0  0  0
   -3.5916   -3.2272   -1.8238 H   0  0  0  0  0  0  0  0  0  0  0  0
   -1.6012    0.8399   -1.1292 H   0  0  0  0  0  0  0  0  0  0  0  0
   -6.5172    2.5801   -1.7121 H   0  0  0  0  0  0  0  0  0  0  0  0
   -6.4744    0.3105   -1.5685 H   0  0  0  0  0  0  0  0  0  0  0  0
   -6.1135   -1.8717   -1.3355 H   0  0  0  0  0  0  0  0  0  0  0  0
  1  2  2  0  0  0  0
  2  3  1  0  0  0  0
  3 28  1  0  0  0  0
  3 29  1  0  0  0  0
  4  5  1  0  0  0  0
  4  2  1  0  0  0  0
  5 30  1  0  0  0  0
  6 31  1  0  0  0  0
  6  5  2  0  0  0  0
  7  6  1  0  0  0  0
  8  7  2  0  0  0  0
  8  9  1  0  0  0  0
  9  4  2  0  0  0  0
 10 11  1  0  0  0  0
 10  7  1  0  0  0  0
 11 12  2  0  0  0  0
 13 11  1  0  0  0  0
 14 13  1  0  0  0  0
 14 35  1  0  0  0  0
 15 14  2  0  0  0  0
 16 15  1  0  0  0  0
 16 17  1  0  0  0  0
 17 13  2  0  0  0  0
 18 17  1  0  0  0  0
 19 18  1  0  0  0  0
 19 37  1  0  0  0  0
 20 19  2  0  0  0  0
 21 20  1  0  0  0  0
 22 24  2  0  0  0  0
 22 20  1  0  0  0  0
 23 22  1  0  0  0  0
 24 25  1  0  0  0  0
 25 26  1  0  0  0  0
 25 18  2  0  0  0  0
 27  3  1  0  0  0  0
 32  8  1  0  0  0  0
 33  9  1  0  0  0  0
 34 10  1  0  0  0  0
 36 16  1  0  0  0  0
 38 23  1  0  0  0  0
 39 24  1  0  0  0  0
 40 26  1  0  0  0  0
M  END
