omegapdb_1qxw_23.xyz
 OpenBabel11041815263D

 36 36  0  0  1  0  0  0  0  0999 V2000
    3.8759    1.7143   -0.4765 C   0  0  0  0  0  0  0  0  0  0  0  0
    4.9932    0.7852   -0.0480 C   0  0  0  0  0  0  0  0  0  0  0  0
    3.6262    0.2396   -0.2961 C   0  0  0  0  0  0  0  0  0  0  0  0
    2.8638   -0.2433    0.8292 N   0  0  0  0  0  0  0  0  0  0  0  0
    1.4245    0.0068    0.7262 C   0  0  0  0  0  0  0  0  0  0  0  0
    0.7586   -1.1791    0.0308 C   0  0  0  0  0  0  0  0  0  0  0  0
   -0.7613   -1.2623    0.2405 C   0  0  1  0  0  0  0  0  0  0  0  0
   -1.1612   -1.6050    1.5995 N   0  0  0  0  0  0  0  0  0  0  0  0
   -1.4736    0.0073   -0.2044 C   0  0  0  0  0  0  0  0  0  0  0  0
   -2.9804   -0.1739   -0.3329 C   0  0  0  0  0  0  0  0  0  0  0  0
   -3.6975    1.1146   -0.7124 C   0  0  0  0  0  0  0  0  0  0  0  0
   -5.2007    0.9203   -0.8611 C   0  0  0  0  0  0  0  0  0  0  0  0
    1.3063   -2.3715    0.5208 O   0  0  0  0  0  0  0  0  0  0  0  0
    1.0501   -1.0357   -1.3556 O   0  0  0  0  0  0  0  0  0  0  0  0
    3.4745    2.3738    0.2791 H   0  0  0  0  0  0  0  0  0  0  0  0
    3.9014    2.1161   -1.4776 H   0  0  0  0  0  0  0  0  0  0  0  0
    5.3182    0.8507    0.9806 H   0  0  0  0  0  0  0  0  0  0  0  0
    5.7743    0.5581   -0.7559 H   0  0  0  0  0  0  0  0  0  0  0  0
    3.4687   -0.3398   -1.1918 H   0  0  0  0  0  0  0  0  0  0  0  0
    3.2268    0.1668    1.6801 H   0  0  0  0  0  0  0  0  0  0  0  0
    1.0175    0.0772    1.7341 H   0  0  0  0  0  0  0  0  0  0  0  0
    1.2015    0.9283    0.1833 H   0  0  0  0  0  0  0  0  0  0  0  0
   -1.0864   -2.0851   -0.4076 H   0  0  0  0  0  0  0  0  0  0  0  0
   -0.5552   -2.3419    1.9412 H   0  0  0  0  0  0  0  0  0  0  0  0
   -1.0260   -0.8064    2.2085 H   0  0  0  0  0  0  0  0  0  0  0  0
   -1.2691    0.8016    0.5222 H   0  0  0  0  0  0  0  0  0  0  0  0
   -1.0562    0.3331   -1.1578 H   0  0  0  0  0  0  0  0  0  0  0  0
   -3.1828   -0.9359   -1.0912 H   0  0  0  0  0  0  0  0  0  0  0  0
   -3.3800   -0.5586    0.6066 H   0  0  0  0  0  0  0  0  0  0  0  0
   -3.4981    1.8729    0.0486 H   0  0  0  0  0  0  0  0  0  0  0  0
   -3.2802    1.4987   -1.6463 H   0  0  0  0  0  0  0  0  0  0  0  0
   -5.4204    0.1867   -1.6366 H   0  0  0  0  0  0  0  0  0  0  0  0
   -5.7035    1.8489   -1.1269 H   0  0  0  0  0  0  0  0  0  0  0  0
   -5.6362    0.5570    0.0694 H   0  0  0  0  0  0  0  0  0  0  0  0
    2.2275   -2.1225    0.7319 H   0  0  0  0  0  0  0  0  0  0  0  0
    0.8600   -1.8973   -1.7467 H   0  0  0  0  0  0  0  0  0  0  0  0
  1  3  1  0  0  0  0
  1  2  1  0  0  0  0
  1 15  1  0  0  0  0
  2 17  1  0  0  0  0
  3  2  1  0  0  0  0
  3  4  1  0  0  0  0
  4 20  1  0  0  0  0
  5  4  1  0  0  0  0
  5 21  1  0  0  0  0
  6  7  1  0  0  0  0
  6 13  1  0  0  0  0
  6  5  1  0  0  0  0
  7 23  1  6  0  0  0
  7  8  1  0  0  0  0
  8 24  1  0  0  0  0
  8 25  1  0  0  0  0
  9  7  1  0  0  0  0
  9 26  1  0  0  0  0
 10  9  1  0  0  0  0
 10 29  1  0  0  0  0
 11 10  1  0  0  0  0
 11 30  1  0  0  0  0
 12 11  1  0  0  0  0
 12 34  1  0  0  0  0
 13 35  1  0  0  0  0
 14  6  1  0  0  0  0
 16  1  1  0  0  0  0
 18  2  1  0  0  0  0
 19  3  1  0  0  0  0
 22  5  1  0  0  0  0
 27  9  1  0  0  0  0
 28 10  1  0  0  0  0
 31 11  1  0  0  0  0
 32 12  1  0  0  0  0
 33 12  1  0  0  0  0
 36 14  1  0  0  0  0
M  END
