omegapdb_1v2k_10.xyz
 OpenBabel11041815263D

 61 65  0  0  0  0  0  0  0  0999 V2000
    8.8912    0.3758   -1.8318 N   0  0  0  0  0  0  0  0  0  0  0  0
    7.9210    1.1870   -2.2742 C   0  0  0  0  0  0  0  0  0  0  0  0
    6.6360    1.2485   -1.7526 C   0  0  0  0  0  0  0  0  0  0  0  0
    6.2786    0.4099   -0.6805 C   0  0  0  0  0  0  0  0  0  0  0  0
    7.2915   -0.4484   -0.2140 C   0  0  0  0  0  0  0  0  0  0  0  0
    8.5440   -0.4200   -0.8101 C   0  0  0  0  0  0  0  0  0  0  0  0
    5.0255    0.4215   -0.1308 N   0  0  0  0  0  0  0  0  0  0  0  0
    3.9440    1.1449   -0.7695 C   0  0  0  0  0  0  0  0  0  0  0  0
    2.6141    0.5299   -0.3605 C   0  0  0  0  0  0  0  0  0  0  0  0
    2.3743    0.6592    1.1578 C   0  0  0  0  0  0  0  0  0  0  0  0
    3.7120    0.6430    1.9056 C   0  0  0  0  0  0  0  0  0  0  0  0
    4.7641   -0.1758    1.1730 C   0  0  0  0  0  0  0  0  0  0  0  0
    1.5024   -0.4997    1.6135 C   0  0  0  0  0  0  0  0  0  0  0  0
    1.9789   -1.4679    2.2027 O   0  0  0  0  0  0  0  0  0  0  0  0
    0.1772   -0.4740    1.2899 N   0  0  0  0  0  0  0  0  0  0  0  0
   -0.5451    0.6032    0.6522 C   0  0  0  0  0  0  0  0  0  0  0  0
   -1.1492    0.1408   -0.6727 C   0  0  0  0  0  0  0  0  0  0  0  0
   -1.6519   -1.2315   -0.5056 N   0  0  0  0  0  0  0  0  0  0  0  0
   -1.9334   -1.6167    0.8741 C   0  0  0  0  0  0  0  0  0  0  0  0
   -0.6084   -1.6614    1.6209 C   0  0  0  0  0  0  0  0  0  0  0  0
   -2.7059   -1.7523   -1.6738 S   0  0  0  0  0  0  0  0  0  0  0  0
   -2.1511   -1.3106   -2.9351 O   0  0  0  0  0  0  0  0  0  0  0  0
   -2.9905   -3.1417   -1.3894 O   0  0  0  0  0  0  0  0  0  0  0  0
   -4.1839   -0.8174   -1.3759 C   0  0  0  0  0  0  0  0  0  0  0  0
   -5.0866   -1.2796   -0.4392 C   0  0  0  0  0  0  0  0  0  0  0  0
   -6.2271   -0.5094   -0.1286 C   0  0  0  0  0  0  0  0  0  0  0  0
   -6.4250    0.7451   -0.7889 C   0  0  0  0  0  0  0  0  0  0  0  0
   -5.4811    1.1736   -1.7517 C   0  0  0  0  0  0  0  0  0  0  0  0
   -4.3723    0.4110   -2.0449 C   0  0  0  0  0  0  0  0  0  0  0  0
   -7.5647    1.5190   -0.4774 C   0  0  0  0  0  0  0  0  0  0  0  0
   -8.4677    1.0597    0.4539 C   0  0  0  0  0  0  0  0  0  0  0  0
   -8.2872   -0.1762    1.1091 C   0  0  0  0  0  0  0  0  0  0  0  0
   -7.1846   -0.9448    0.8180 C   0  0  0  0  0  0  0  0  0  0  0  0
   -9.8648    2.0066    0.8405 Cl  0  0  0  0  0  0  0  0  0  0  0  0
    8.1867    1.8413   -3.0964 H   0  0  0  0  0  0  0  0  0  0  0  0
    5.9402    1.9625   -2.1665 H   0  0  0  0  0  0  0  0  0  0  0  0
    7.1068   -1.1549    0.5810 H   0  0  0  0  0  0  0  0  0  0  0  0
    9.3148   -1.0892   -0.4463 H   0  0  0  0  0  0  0  0  0  0  0  0
    3.9593    2.2165   -0.5252 H   0  0  0  0  0  0  0  0  0  0  0  0
    4.0594    1.0575   -1.8502 H   0  0  0  0  0  0  0  0  0  0  0  0
    2.6298   -0.5263   -0.6381 H   0  0  0  0  0  0  0  0  0  0  0  0
    1.8095    0.9977   -0.9285 H   0  0  0  0  0  0  0  0  0  0  0  0
    1.8765    1.6076    1.3648 H   0  0  0  0  0  0  0  0  0  0  0  0
    4.0832    1.6640    2.0043 H   0  0  0  0  0  0  0  0  0  0  0  0
    3.5712    0.2341    2.9038 H   0  0  0  0  0  0  0  0  0  0  0  0
    4.4394   -1.2169    1.0921 H   0  0  0  0  0  0  0  0  0  0  0  0
    5.6897   -0.1586    1.7472 H   0  0  0  0  0  0  0  0  0  0  0  0
   -1.3354    0.9565    1.3191 H   0  0  0  0  0  0  0  0  0  0  0  0
    0.1142    1.4449    0.4697 H   0  0  0  0  0  0  0  0  0  0  0  0
   -0.4014    0.1337   -1.4623 H   0  0  0  0  0  0  0  0  0  0  0  0
   -1.9487    0.8355   -0.9541 H   0  0  0  0  0  0  0  0  0  0  0  0
   -2.6454   -0.9298    1.3462 H   0  0  0  0  0  0  0  0  0  0  0  0
   -2.3728   -2.6105    0.8682 H   0  0  0  0  0  0  0  0  0  0  0  0
   -0.7774   -1.7272    2.6984 H   0  0  0  0  0  0  0  0  0  0  0  0
   -0.0383   -2.5374    1.3190 H   0  0  0  0  0  0  0  0  0  0  0  0
   -4.9368   -2.2443    0.0285 H   0  0  0  0  0  0  0  0  0  0  0  0
   -5.6460    2.1120   -2.2663 H   0  0  0  0  0  0  0  0  0  0  0  0
   -3.6647    0.7136   -2.8038 H   0  0  0  0  0  0  0  0  0  0  0  0
   -7.7269    2.4678   -0.9711 H   0  0  0  0  0  0  0  0  0  0  0  0
   -9.0202   -0.5049    1.8317 H   0  0  0  0  0  0  0  0  0  0  0  0
   -7.0405   -1.8959    1.3145 H   0  0  0  0  0  0  0  0  0  0  0  0
  1  6  1  0  0  0  0
  2  1  2  0  0  0  0
  2  3  1  0  0  0  0
  3  4  2  0  0  0  0
  4  5  1  0  0  0  0
  4  7  1  0  0  0  0
  5 37  1  0  0  0  0
  6 38  1  0  0  0  0
  6  5  2  0  0  0  0
  7 12  1  0  0  0  0
  8 39  1  0  0  0  0
  8  9  1  0  0  0  0
  8  7  1  0  0  0  0
  9 10  1  0  0  0  0
 10 43  1  0  0  0  0
 10 13  1  0  0  0  0
 10 11  1  0  0  0  0
 11 44  1  0  0  0  0
 11 45  1  0  0  0  0
 12 47  1  0  0  0  0
 12 11  1  0  0  0  0
 13 14  2  0  0  0  0
 15 13  1  0  0  0  0
 15 20  1  0  0  0  0
 16 15  1  0  0  0  0
 16 48  1  0  0  0  0
 17 18  1  0  0  0  0
 17 16  1  0  0  0  0
 18 19  1  0  0  0  0
 19 52  1  0  0  0  0
 19 20  1  0  0  0  0
 20 54  1  0  0  0  0
 21 23  2  0  0  0  0
 21 24  1  0  0  0  0
 21 18  1  0  0  0  0
 22 21  2  0  0  0  0
 24 25  2  0  0  0  0
 25 26  1  0  0  0  0
 25 56  1  0  0  0  0
 26 33  2  0  0  0  0
 27 30  2  0  0  0  0
 27 26  1  0  0  0  0
 28 27  1  0  0  0  0
 29 28  2  0  0  0  0
 29 24  1  0  0  0  0
 30 31  1  0  0  0  0
 31 34  1  0  0  0  0
 31 32  2  0  0  0  0
 32 60  1  0  0  0  0
 33 32  1  0  0  0  0
 33 61  1  0  0  0  0
 35  2  1  0  0  0  0
 36  3  1  0  0  0  0
 40  8  1  0  0  0  0
 41  9  1  0  0  0  0
 42  9  1  0  0  0  0
 46 12  1  0  0  0  0
 49 16  1  0  0  0  0
 50 17  1  0  0  0  0
 51 17  1  0  0  0  0
 53 19  1  0  0  0  0
 55 20  1  0  0  0  0
 57 28  1  0  0  0  0
 58 29  1  0  0  0  0
 59 30  1  0  0  0  0
M  END
