omegapdb_1xom_18.xyz
 OpenBabel11041815263D

 50 52  0  0  1  0  0  0  0  0999 V2000
    5.9733    2.8299   -0.0964 O   0  0  0  0  0  0  0  0  0  0  0  0
    5.7985    1.5210   -0.4319 C   0  0  0  0  0  0  0  0  0  0  0  0
    6.7545    0.8216   -0.6441 O   0  0  0  0  0  0  0  0  0  0  0  0
    4.3590    1.0505   -0.4694 C   0  0  1  0  0  0  0  0  0  0  0  0
    4.2372   -0.2791   -1.2017 C   0  0  0  0  0  0  0  0  0  0  0  0
    2.7917   -0.7594   -1.2209 C   0  0  0  0  0  0  0  0  0  0  0  0
    2.2005   -0.8907    0.1996 C   0  0  2  0  0  0  0  0  0  0  0  0
    2.3681    0.4489    0.9486 C   0  0  0  0  0  0  0  0  0  0  0  0
    3.8164    0.9234    0.9615 C   0  0  0  0  0  0  0  0  0  0  0  0
    2.9754   -1.9016    0.9207 C   0  0  0  0  0  0  0  0  0  0  0  0
    3.6151   -2.6945    1.5021 N   0  0  0  0  0  0  0  0  0  0  0  0
    0.7399   -1.3003    0.1439 C   0  0  0  0  0  0  0  0  0  0  0  0
    0.2733   -2.4969    0.6825 C   0  0  0  0  0  0  0  0  0  0  0  0
   -1.0753   -2.8478    0.5960 C   0  0  0  0  0  0  0  0  0  0  0  0
   -1.9917   -2.0001   -0.0271 C   0  0  0  0  0  0  0  0  0  0  0  0
   -3.3179   -2.2472   -0.1577 O   0  0  0  0  0  0  0  0  0  0  0  0
   -3.7781   -3.4781    0.3779 C   0  0  0  0  0  0  0  0  0  0  0  0
   -1.5276   -0.7873   -0.5716 C   0  0  0  0  0  0  0  0  0  0  0  0
   -0.1826   -0.4563   -0.4865 C   0  0  0  0  0  0  0  0  0  0  0  0
   -2.4051    0.0396   -1.2233 O   0  0  0  0  0  0  0  0  0  0  0  0
   -2.8128    1.1574   -0.4259 C   0  0  0  0  0  0  0  0  0  0  0  0
   -3.6895    2.0783   -1.2713 C   0  0  0  0  0  0  0  0  0  0  0  0
   -4.6521    2.7567   -0.2688 C   0  0  0  0  0  0  0  0  0  0  0  0
   -4.2801    2.1769    1.1106 C   0  0  0  0  0  0  0  0  0  0  0  0
   -3.6824    0.8130    0.7766 C   0  0  0  0  0  0  0  0  0  0  0  0
    5.1087    3.2403    0.0175 H   0  0  0  0  0  0  0  0  0  0  0  0
    3.7633    1.8063   -0.9963 H   0  0  0  0  0  0  0  0  0  0  0  0
    4.6109   -0.1783   -2.2206 H   0  0  0  0  0  0  0  0  0  0  0  0
    4.8771   -1.0108   -0.7064 H   0  0  0  0  0  0  0  0  0  0  0  0
    2.1674   -0.0508   -1.7704 H   0  0  0  0  0  0  0  0  0  0  0  0
    2.7088   -1.7217   -1.7276 H   0  0  0  0  0  0  0  0  0  0  0  0
    1.7420    1.1887    0.4445 H   0  0  0  0  0  0  0  0  0  0  0  0
    1.9875    0.3377    1.9650 H   0  0  0  0  0  0  0  0  0  0  0  0
    3.8816    1.8762    1.4903 H   0  0  0  0  0  0  0  0  0  0  0  0
    4.4382    0.2118    1.5106 H   0  0  0  0  0  0  0  0  0  0  0  0
    0.9597   -3.1736    1.1731 H   0  0  0  0  0  0  0  0  0  0  0  0
   -1.3973   -3.7853    1.0224 H   0  0  0  0  0  0  0  0  0  0  0  0
   -4.8433   -3.5081    0.1767 H   0  0  0  0  0  0  0  0  0  0  0  0
   -3.6082   -3.5293    1.4546 H   0  0  0  0  0  0  0  0  0  0  0  0
   -3.2916   -4.3257   -0.1069 H   0  0  0  0  0  0  0  0  0  0  0  0
    0.1229    0.4763   -0.9443 H   0  0  0  0  0  0  0  0  0  0  0  0
   -1.9154    1.6845   -0.0792 H   0  0  0  0  0  0  0  0  0  0  0  0
   -3.0973    2.7886   -1.8437 H   0  0  0  0  0  0  0  0  0  0  0  0
   -4.2305    1.4530   -1.9804 H   0  0  0  0  0  0  0  0  0  0  0  0
   -5.6831    2.5052   -0.5117 H   0  0  0  0  0  0  0  0  0  0  0  0
   -4.5747    3.8416   -0.2881 H   0  0  0  0  0  0  0  0  0  0  0  0
   -5.1289    2.1211    1.7889 H   0  0  0  0  0  0  0  0  0  0  0  0
   -3.5216    2.8005    1.5876 H   0  0  0  0  0  0  0  0  0  0  0  0
   -3.1266    0.3573    1.5949 H   0  0  0  0  0  0  0  0  0  0  0  0
   -4.4572    0.1170    0.4514 H   0  0  0  0  0  0  0  0  0  0  0  0
  1 26  1  0  0  0  0
  2  1  1  0  0  0  0
  3  2  2  0  0  0  0
  4 27  1  6  0  0  0
  4  2  1  0  0  0  0
  4  9  1  0  0  0  0
  5 29  1  0  0  0  0
  5  4  1  0  0  0  0
  6  5  1  0  0  0  0
  6  7  1  0  0  0  0
  7 12  1  6  0  0  0
  7 10  1  0  0  0  0
  7  8  1  0  0  0  0
  8  9  1  0  0  0  0
  8 33  1  0  0  0  0
  9 34  1  0  0  0  0
  9 35  1  0  0  0  0
 10 11  3  0  0  0  0
 12 13  2  0  0  0  0
 13 36  1  0  0  0  0
 14 13  1  0  0  0  0
 14 37  1  0  0  0  0
 15 14  2  0  0  0  0
 16 15  1  0  0  0  0
 16 17  1  0  0  0  0
 17 39  1  0  0  0  0
 18 19  2  0  0  0  0
 18 15  1  0  0  0  0
 19 12  1  0  0  0  0
 20 18  1  0  0  0  0
 20 21  1  0  0  0  0
 21 42  1  0  0  0  0
 21 25  1  0  0  0  0
 22 21  1  0  0  0  0
 22 23  1  0  0  0  0
 23 24  1  0  0  0  0
 24 48  1  0  0  0  0
 24 47  1  0  0  0  0
 25 24  1  0  0  0  0
 25 49  1  0  0  0  0
 28  5  1  0  0  0  0
 30  6  1  0  0  0  0
 31  6  1  0  0  0  0
 32  8  1  0  0  0  0
 38 17  1  0  0  0  0
 40 17  1  0  0  0  0
 41 19  1  0  0  0  0
 43 22  1  0  0  0  0
 44 22  1  0  0  0  0
 45 23  1  0  0  0  0
 46 23  1  0  0  0  0
 50 25  1  0  0  0  0
M  END
