omegapdb_2f7p_08.xyz
 OpenBabel11041815263D

 34 35  0  0  1  0  0  0  0  0999 V2000
   -1.2102   -0.3959   -0.3145 C   0  0  1  0  0  0  0  0  0  0  0  0
    0.1333    0.1018   -0.1331 N   0  0  0  0  0  0  0  0  0  0  0  0
    1.1971   -0.8330   -0.4593 C   0  0  0  0  0  0  0  0  0  0  0  0
    2.5772   -0.2208   -0.2810 C   0  0  0  0  0  0  0  0  0  0  0  0
    3.6788   -1.0287   -0.0075 C   0  0  0  0  0  0  0  0  0  0  0  0
    4.9487   -0.4730    0.1293 C   0  0  0  0  0  0  0  0  0  0  0  0
    5.1272    0.9025   -0.0102 C   0  0  0  0  0  0  0  0  0  0  0  0
    4.0301    1.7145   -0.2826 C   0  0  0  0  0  0  0  0  0  0  0  0
    2.7620    1.1515   -0.4113 C   0  0  0  0  0  0  0  0  0  0  0  0
   -1.7914   -1.1999    0.8669 C   0  0  1  0  0  0  0  0  0  0  0  0
   -1.3574   -0.5889    2.0696 O   0  0  0  0  0  0  0  0  0  0  0  0
   -3.3355   -1.0787    0.7220 C   0  0  1  0  0  0  0  0  0  0  0  0
   -3.9023   -0.7247    1.9695 O   0  0  0  0  0  0  0  0  0  0  0  0
   -3.5639    0.0275   -0.3412 C   0  0  1  0  0  0  0  0  0  0  0  0
   -4.6254    0.8616    0.0783 O   0  0  0  0  0  0  0  0  0  0  0  0
   -2.2192    0.7468   -0.4092 C   0  0  2  0  0  0  0  0  0  0  0  0
   -2.0584    1.7947   -1.8843 S   0  0  0  0  0  0  0  0  0  0  0  0
   -1.2794   -0.9816   -1.2398 H   0  0  0  0  0  0  0  0  0  0  0  0
    0.2110    0.3676    0.8478 H   0  0  0  0  0  0  0  0  0  0  0  0
    1.1463   -1.7552    0.1483 H   0  0  0  0  0  0  0  0  0  0  0  0
    1.0786   -1.1567   -1.5075 H   0  0  0  0  0  0  0  0  0  0  0  0
    3.5446   -2.1043    0.1040 H   0  0  0  0  0  0  0  0  0  0  0  0
    5.7992   -1.1159    0.3466 H   0  0  0  0  0  0  0  0  0  0  0  0
    6.1196    1.3381    0.0943 H   0  0  0  0  0  0  0  0  0  0  0  0
    4.1557    2.7910   -0.3895 H   0  0  0  0  0  0  0  0  0  0  0  0
    1.9037    1.7868   -0.6166 H   0  0  0  0  0  0  0  0  0  0  0  0
   -1.4535   -2.2403    0.8772 H   0  0  0  0  0  0  0  0  0  0  0  0
   -2.1878   -0.4352    2.5607 H   0  0  0  0  0  0  0  0  0  0  0  0
   -3.7884   -2.0232    0.4012 H   0  0  0  0  0  0  0  0  0  0  0  0
   -4.4114    0.0899    1.7937 H   0  0  0  0  0  0  0  0  0  0  0  0
   -3.7910   -0.4255   -1.3143 H   0  0  0  0  0  0  0  0  0  0  0  0
   -4.5698    1.6994   -0.4052 H   0  0  0  0  0  0  0  0  0  0  0  0
   -2.1234    1.3766    0.4822 H   0  0  0  0  0  0  0  0  0  0  0  0
   -0.7446    2.0311   -1.7289 H   0  0  0  0  0  0  0  0  0  0  0  0
  1 18  1  6  0  0  0
  1  2  1  0  0  0  0
  1 10  1  0  0  0  0
  2 19  1  0  0  0  0
  3  4  1  0  0  0  0
  3  2  1  0  0  0  0
  3 20  1  0  0  0  0
  4  5  2  0  0  0  0
  5 22  1  0  0  0  0
  5  6  1  0  0  0  0
  6 23  1  0  0  0  0
  7 24  1  0  0  0  0
  7  6  2  0  0  0  0
  8  7  1  0  0  0  0
  9  8  2  0  0  0  0
  9  4  1  0  0  0  0
 10 27  1  6  0  0  0
 10 11  1  0  0  0  0
 11 28  1  0  0  0  0
 12 29  1  6  0  0  0
 12 10  1  0  0  0  0
 12 13  1  0  0  0  0
 14 31  1  6  0  0  0
 14 15  1  0  0  0  0
 14 12  1  0  0  0  0
 16 14  1  0  0  0  0
 16  1  1  0  0  0  0
 16 33  1  1  0  0  0
 17 34  1  0  0  0  0
 17 16  1  0  0  0  0
 21  3  1  0  0  0  0
 25  8  1  0  0  0  0
 26  9  1  0  0  0  0
 30 13  1  0  0  0  0
 32 15  1  0  0  0  0
M  END
