omegapdb_1gs5_12.xyz
 OpenBabel11041815263D

 24 23  0  0  1  0  0  0  0  0999 V2000
   -0.4510   -0.9343   -0.4704 C   0  0  2  0  0  0  0  0  0  0  0  0
   -0.9655   -1.7781    0.6697 C   0  0  0  0  0  0  0  0  0  0  0  0
   -1.7823   -1.4188    1.4897 O   0  0  0  0  0  0  0  0  0  0  0  0
   -0.3793   -2.9890    0.6894 O   0  0  0  0  0  0  0  0  0  0  0  0
    1.0596   -0.7077   -0.3443 C   0  0  0  0  0  0  0  0  0  0  0  0
    1.4275   -0.0374    0.9662 C   0  0  0  0  0  0  0  0  0  0  0  0
    2.9041    0.2765    1.0519 C   0  0  0  0  0  0  0  0  0  0  0  0
    3.7159    0.0053    0.2074 O   0  0  0  0  0  0  0  0  0  0  0  0
    3.2892    0.9082    2.1944 O   0  0  0  0  0  0  0  0  0  0  0  0
   -1.1950    0.3024   -0.4697 N   0  0  0  0  0  0  0  0  0  0  0  0
   -1.3386    1.0119   -1.6306 C   0  0  0  0  0  0  0  0  0  0  0  0
   -0.7265    0.7147   -2.6471 O   0  0  0  0  0  0  0  0  0  0  0  0
   -2.2800    2.1874   -1.5355 C   0  0  0  0  0  0  0  0  0  0  0  0
   -0.6315   -1.4668   -1.4066 H   0  0  0  0  0  0  0  0  0  0  0  0
   -0.7582   -3.4583    1.4486 H   0  0  0  0  0  0  0  0  0  0  0  0
    1.3674   -0.0853   -1.1815 H   0  0  0  0  0  0  0  0  0  0  0  0
    1.5788   -1.6594   -0.4375 H   0  0  0  0  0  0  0  0  0  0  0  0
    1.1721   -0.6706    1.8211 H   0  0  0  0  0  0  0  0  0  0  0  0
    0.8660    0.8924    1.0856 H   0  0  0  0  0  0  0  0  0  0  0  0
    2.5135    1.0519    2.7481 H   0  0  0  0  0  0  0  0  0  0  0  0
   -1.8529    0.4273    0.2845 H   0  0  0  0  0  0  0  0  0  0  0  0
   -3.2794    1.8552   -1.2583 H   0  0  0  0  0  0  0  0  0  0  0  0
   -2.3176    2.6840   -2.4982 H   0  0  0  0  0  0  0  0  0  0  0  0
   -1.9363    2.8885   -0.7770 H   0  0  0  0  0  0  0  0  0  0  0  0
  1 14  1  6  0  0  0
  1 10  1  0  0  0  0
  1  5  1  0  0  0  0
  1  2  1  0  0  0  0
  2  4  1  0  0  0  0
  2  3  2  0  0  0  0
  4 15  1  0  0  0  0
  5  6  1  0  0  0  0
  6  7  1  0  0  0  0
  6 19  1  0  0  0  0
  6 18  1  0  0  0  0
  7  9  1  0  0  0  0
  8  7  2  0  0  0  0
  9 20  1  0  0  0  0
 10 21  1  0  0  0  0
 11 13  1  0  0  0  0
 11 10  1  0  0  0  0
 12 11  2  0  0  0  0
 13 22  1  0  0  0  0
 13 24  1  0  0  0  0
 16  5  1  0  0  0  0
 17  5  1  0  0  0  0
 23 13  1  0  0  0  0
M  END
