omegapdb_2f7p_01.xyz
 OpenBabel11041815263D

 34 35  0  0  1  0  0  0  0  0999 V2000
   -1.3205   -1.1061   -0.5570 C   0  0  1  0  0  0  0  0  0  0  0  0
   -0.0712   -0.5326   -0.0530 N   0  0  0  0  0  0  0  0  0  0  0  0
    1.0136   -0.5437   -1.0384 C   0  0  0  0  0  0  0  0  0  0  0  0
    2.2419    0.0814   -0.4450 C   0  0  0  0  0  0  0  0  0  0  0  0
    3.3420   -0.6979   -0.0864 C   0  0  0  0  0  0  0  0  0  0  0  0
    4.4637   -0.1136    0.5002 C   0  0  0  0  0  0  0  0  0  0  0  0
    4.4896    1.2587    0.7354 C   0  0  0  0  0  0  0  0  0  0  0  0
    3.3924    2.0449    0.3827 C   0  0  0  0  0  0  0  0  0  0  0  0
    2.2750    1.4582   -0.2031 C   0  0  0  0  0  0  0  0  0  0  0  0
   -2.2298   -1.4233    0.6519 C   0  0  1  0  0  0  0  0  0  0  0  0
   -1.5044   -1.8584    1.7776 O   0  0  0  0  0  0  0  0  0  0  0  0
   -3.0116   -0.0996    0.9486 C   0  0  1  0  0  0  0  0  0  0  0  0
   -2.6893    0.3985    2.2316 O   0  0  0  0  0  0  0  0  0  0  0  0
   -2.5818    0.8965   -0.1575 C   0  0  1  0  0  0  0  0  0  0  0  0
   -1.5187    1.7089    0.3292 O   0  0  0  0  0  0  0  0  0  0  0  0
   -2.1040   -0.0118   -1.2936 C   0  0  2  0  0  0  0  0  0  0  0  0
   -3.4623   -0.6559   -2.3214 S   0  0  0  0  0  0  0  0  0  0  0  0
   -1.1485   -1.9855   -1.1864 H   0  0  0  0  0  0  0  0  0  0  0  0
    0.1975   -1.0721    0.7677 H   0  0  0  0  0  0  0  0  0  0  0  0
    1.2336   -1.5609   -1.3843 H   0  0  0  0  0  0  0  0  0  0  0  0
    0.6861    0.0299   -1.9077 H   0  0  0  0  0  0  0  0  0  0  0  0
    3.3206   -1.7649   -0.2710 H   0  0  0  0  0  0  0  0  0  0  0  0
    5.3118   -0.7269    0.7719 H   0  0  0  0  0  0  0  0  0  0  0  0
    5.3587    1.7144    1.1893 H   0  0  0  0  0  0  0  0  0  0  0  0
    3.4097    3.1112    0.5619 H   0  0  0  0  0  0  0  0  0  0  0  0
    1.4219    2.0684   -0.4751 H   0  0  0  0  0  0  0  0  0  0  0  0
   -2.9284   -2.2095    0.3628 H   0  0  0  0  0  0  0  0  0  0  0  0
   -1.6778   -1.1661    2.4412 H   0  0  0  0  0  0  0  0  0  0  0  0
   -4.0845   -0.2814    0.9186 H   0  0  0  0  0  0  0  0  0  0  0  0
   -2.0979    1.1504    2.0393 H   0  0  0  0  0  0  0  0  0  0  0  0
   -3.3866    1.5610   -0.4601 H   0  0  0  0  0  0  0  0  0  0  0  0
   -0.7449    1.0895    0.3329 H   0  0  0  0  0  0  0  0  0  0  0  0
   -1.4845    0.5450   -1.9969 H   0  0  0  0  0  0  0  0  0  0  0  0
   -4.1114   -1.3062   -1.3504 H   0  0  0  0  0  0  0  0  0  0  0  0
  1 18  1  6  0  0  0
  1  2  1  0  0  0  0
  1 10  1  0  0  0  0
  2 19  1  0  0  0  0
  3  4  1  0  0  0  0
  3  2  1  0  0  0  0
  4  9  2  0  0  0  0
  4  5  1  0  0  0  0
  5  6  2  0  0  0  0
  6  7  1  0  0  0  0
  6 23  1  0  0  0  0
  7 24  1  0  0  0  0
  8 25  1  0  0  0  0
  8  7  2  0  0  0  0
  9  8  1  0  0  0  0
 10 27  1  6  0  0  0
 10 12  1  0  0  0  0
 10 11  1  0  0  0  0
 11 28  1  0  0  0  0
 12 29  1  6  0  0  0
 12 13  1  0  0  0  0
 14 31  1  6  0  0  0
 14 15  1  0  0  0  0
 14 12  1  0  0  0  0
 15 32  1  0  0  0  0
 16 33  1  6  0  0  0
 16  1  1  0  0  0  0
 16 14  1  0  0  0  0
 17 34  1  0  0  0  0
 17 16  1  0  0  0  0
 20  3  1  0  0  0  0
 21  3  1  0  0  0  0
 22  5  1  0  0  0  0
 26  9  1  0  0  0  0
 30 13  1  0  0  0  0
M  END
