omegapdb_1qxw_14.xyz
 OpenBabel11041815263D

 36 36  0  0  1  0  0  0  0  0999 V2000
    4.2848    1.4274   -0.4535 C   0  0  0  0  0  0  0  0  0  0  0  0
    3.9371    0.2178   -1.2953 C   0  0  0  0  0  0  0  0  0  0  0  0
    3.7169    0.2099    0.1978 C   0  0  0  0  0  0  0  0  0  0  0  0
    2.3934    0.2746    0.7504 N   0  0  0  0  0  0  0  0  0  0  0  0
    1.6632   -0.9835    0.6185 C   0  0  0  0  0  0  0  0  0  0  0  0
    0.3426   -0.9051    1.3911 C   0  0  0  0  0  0  0  0  0  0  0  0
   -0.7817   -0.1387    0.6856 C   0  0  1  0  0  0  0  0  0  0  0  0
   -0.3458    1.2501    0.5003 N   0  0  0  0  0  0  0  0  0  0  0  0
   -1.1743   -0.7467   -0.6522 C   0  0  0  0  0  0  0  0  0  0  0  0
   -2.3782   -0.0726   -1.3116 C   0  0  0  0  0  0  0  0  0  0  0  0
   -3.6350   -0.0466   -0.4498 C   0  0  0  0  0  0  0  0  0  0  0  0
   -4.8390    0.4894   -1.2137 C   0  0  0  0  0  0  0  0  0  0  0  0
    0.6030   -0.2952    2.6397 O   0  0  0  0  0  0  0  0  0  0  0  0
   -0.1675   -2.1986    1.6147 O   0  0  0  0  0  0  0  0  0  0  0  0
    3.6348    2.2864   -0.5333 H   0  0  0  0  0  0  0  0  0  0  0  0
    5.3263    1.6575   -0.2935 H   0  0  0  0  0  0  0  0  0  0  0  0
    3.0544    0.2922   -1.9137 H   0  0  0  0  0  0  0  0  0  0  0  0
    4.7457   -0.3657   -1.7086 H   0  0  0  0  0  0  0  0  0  0  0  0
    4.3952   -0.3956    0.7844 H   0  0  0  0  0  0  0  0  0  0  0  0
    1.8429    0.9995    0.2949 H   0  0  0  0  0  0  0  0  0  0  0  0
    2.2610   -1.7679    1.0885 H   0  0  0  0  0  0  0  0  0  0  0  0
    1.4838   -1.2871   -0.4164 H   0  0  0  0  0  0  0  0  0  0  0  0
   -1.6274   -0.2249    1.3762 H   0  0  0  0  0  0  0  0  0  0  0  0
   -0.2618    1.6807    1.4151 H   0  0  0  0  0  0  0  0  0  0  0  0
   -1.0668    1.7661    0.0105 H   0  0  0  0  0  0  0  0  0  0  0  0
   -0.3239   -0.6871   -1.3343 H   0  0  0  0  0  0  0  0  0  0  0  0
   -1.3947   -1.8025   -0.4915 H   0  0  0  0  0  0  0  0  0  0  0  0
   -2.6010   -0.6028   -2.2407 H   0  0  0  0  0  0  0  0  0  0  0  0
   -2.1256    0.9482   -1.6142 H   0  0  0  0  0  0  0  0  0  0  0  0
   -3.4670    0.5673    0.4369 H   0  0  0  0  0  0  0  0  0  0  0  0
   -3.8419   -1.0567   -0.0889 H   0  0  0  0  0  0  0  0  0  0  0  0
   -5.0562   -0.1341   -2.0807 H   0  0  0  0  0  0  0  0  0  0  0  0
   -4.6498    1.5009   -1.5739 H   0  0  0  0  0  0  0  0  0  0  0  0
   -5.7308    0.5187   -0.5899 H   0  0  0  0  0  0  0  0  0  0  0  0
    1.4499    0.1685    2.4960 H   0  0  0  0  0  0  0  0  0  0  0  0
    0.3340   -2.5439    2.3625 H   0  0  0  0  0  0  0  0  0  0  0  0
  1 16  1  0  0  0  0
  1  3  1  0  0  0  0
  2  1  1  0  0  0  0
  2  3  1  0  0  0  0
  3  4  1  0  0  0  0
  3 19  1  0  0  0  0
  5  4  1  0  0  0  0
  5 21  1  0  0  0  0
  5  6  1  0  0  0  0
  6 14  1  0  0  0  0
  6 13  1  0  0  0  0
  7 23  1  1  0  0  0
  7  6  1  0  0  0  0
  8  7  1  0  0  0  0
  8 24  1  0  0  0  0
  9 27  1  0  0  0  0
  9  7  1  0  0  0  0
 10  9  1  0  0  0  0
 10 11  1  0  0  0  0
 11 31  1  0  0  0  0
 11 30  1  0  0  0  0
 12 34  1  0  0  0  0
 12 11  1  0  0  0  0
 14 36  1  0  0  0  0
 15  1  1  0  0  0  0
 17  2  1  0  0  0  0
 18  2  1  0  0  0  0
 20  4  1  0  0  0  0
 22  5  1  0  0  0  0
 25  8  1  0  0  0  0
 26  9  1  0  0  0  0
 28 10  1  0  0  0  0
 29 10  1  0  0  0  0
 32 12  1  0  0  0  0
 33 12  1  0  0  0  0
 35 13  1  0  0  0  0
M  END
