omegapdb_1m5f_20.xyz
 OpenBabel11041815263D

 25 25  0  0  1  0  0  0  0  0999 V2000
   -0.8513   -3.5126   -1.3253 O   0  0  0  0  0  0  0  0  0  0  0  0
   -0.3971   -2.2514   -1.3570 C   0  0  0  0  0  0  0  0  0  0  0  0
    0.5434   -1.8828   -2.0286 O   0  0  0  0  0  0  0  0  0  0  0  0
   -1.1663   -1.3434   -0.4830 C   0  0  0  0  0  0  0  0  0  0  0  0
   -2.2604   -1.7588    0.1530 N   0  0  0  0  0  0  0  0  0  0  0  0
   -2.7040   -0.6593    0.8494 O   0  0  0  0  0  0  0  0  0  0  0  0
   -1.8828    0.3926    0.6299 C   0  0  0  0  0  0  0  0  0  0  0  0
   -0.8732    0.0199   -0.2215 C   0  0  0  0  0  0  0  0  0  0  0  0
    0.2503    0.8692   -0.7127 C   0  0  0  0  0  0  0  0  0  0  0  0
    1.4677    0.9146    0.2290 C   0  0  2  0  0  0  0  0  0  0  0  0
    2.3849    1.9218   -0.2697 N   0  0  0  0  0  0  0  0  0  0  0  0
    2.1147   -0.4658    0.3591 C   0  0  0  0  0  0  0  0  0  0  0  0
    3.1528   -0.7633   -0.1717 O   0  0  0  0  0  0  0  0  0  0  0  0
    1.4547   -1.3655    1.1346 O   0  0  0  0  0  0  0  0  0  0  0  0
   -2.2285    1.6666    1.3028 C   0  0  0  0  0  0  0  0  0  0  0  0
   -0.2700   -4.0094   -1.9218 H   0  0  0  0  0  0  0  0  0  0  0  0
   -0.0847    1.9000   -0.8227 H   0  0  0  0  0  0  0  0  0  0  0  0
    0.5790    0.5155   -1.6883 H   0  0  0  0  0  0  0  0  0  0  0  0
    1.1214    1.2243    1.2195 H   0  0  0  0  0  0  0  0  0  0  0  0
    2.8092    1.5571   -1.1173 H   0  0  0  0  0  0  0  0  0  0  0  0
    3.1588    2.0129    0.3790 H   0  0  0  0  0  0  0  0  0  0  0  0
    0.6296   -0.9685    1.4427 H   0  0  0  0  0  0  0  0  0  0  0  0
   -3.2429    1.9712    1.0513 H   0  0  0  0  0  0  0  0  0  0  0  0
   -2.1642    1.5689    2.3855 H   0  0  0  0  0  0  0  0  0  0  0  0
   -1.5410    2.4462    0.9838 H   0  0  0  0  0  0  0  0  0  0  0  0
  2  1  1  0  0  0  0
  2  4  1  0  0  0  0
  3  2  2  0  0  0  0
  4  8  1  0  0  0  0
  4  5  2  0  0  0  0
  5  6  1  0  0  0  0
  7  6  1  0  0  0  0
  7 15  1  0  0  0  0
  8  7  2  0  0  0  0
  9  8  1  0  0  0  0
  9 10  1  0  0  0  0
 10 12  1  0  0  0  0
 10 19  1  1  0  0  0
 11 10  1  0  0  0  0
 11 21  1  0  0  0  0
 12 14  1  0  0  0  0
 13 12  2  0  0  0  0
 14 22  1  0  0  0  0
 15 24  1  0  0  0  0
 16  1  1  0  0  0  0
 17  9  1  0  0  0  0
 18  9  1  0  0  0  0
 20 11  1  0  0  0  0
 23 15  1  0  0  0  0
 25 15  1  0  0  0  0
M  END
