omegapdb_1qxw_02.xyz
 OpenBabel11041815263D

 36 36  0  0  1  0  0  0  0  0999 V2000
    5.2932    0.4970    0.5765 C   0  0  0  0  0  0  0  0  0  0  0  0
    4.7118    0.2808   -0.7994 C   0  0  0  0  0  0  0  0  0  0  0  0
    3.9159    0.9924    0.2548 C   0  0  0  0  0  0  0  0  0  0  0  0
    2.8150    0.2649    0.8180 N   0  0  0  0  0  0  0  0  0  0  0  0
    1.5804    0.4092    0.0494 C   0  0  0  0  0  0  0  0  0  0  0  0
    0.5858   -0.6024    0.5952 C   0  0  0  0  0  0  0  0  0  0  0  0
   -0.6938   -0.7730   -0.2256 C   0  0  1  0  0  0  0  0  0  0  0  0
   -1.5182   -1.7024    0.5552 N   0  0  0  0  0  0  0  0  0  0  0  0
   -1.4208    0.5452   -0.4532 C   0  0  0  0  0  0  0  0  0  0  0  0
   -2.7929    0.3893   -1.1226 C   0  0  0  0  0  0  0  0  0  0  0  0
   -3.9613    0.3703   -0.1397 C   0  0  0  0  0  0  0  0  0  0  0  0
   -5.2949    0.1303   -0.8338 C   0  0  0  0  0  0  0  0  0  0  0  0
    0.2699   -0.1696    1.9003 O   0  0  0  0  0  0  0  0  0  0  0  0
    1.1911   -1.8781    0.6099 O   0  0  0  0  0  0  0  0  0  0  0  0
    5.3492   -0.3632    1.2247 H   0  0  0  0  0  0  0  0  0  0  0  0
    6.0824    1.2239    0.6871 H   0  0  0  0  0  0  0  0  0  0  0  0
    5.1115    0.8589   -1.6176 H   0  0  0  0  0  0  0  0  0  0  0  0
    4.3874   -0.7200   -1.0403 H   0  0  0  0  0  0  0  0  0  0  0  0
    3.7974    2.0656    0.1293 H   0  0  0  0  0  0  0  0  0  0  0  0
    2.6400    0.5714    1.7695 H   0  0  0  0  0  0  0  0  0  0  0  0
    1.1601    1.4172    0.1014 H   0  0  0  0  0  0  0  0  0  0  0  0
    1.8019    0.1694   -0.9911 H   0  0  0  0  0  0  0  0  0  0  0  0
   -0.4001   -1.1888   -1.1966 H   0  0  0  0  0  0  0  0  0  0  0  0
   -1.0386   -2.5957    0.5935 H   0  0  0  0  0  0  0  0  0  0  0  0
   -2.4016   -1.8639    0.0888 H   0  0  0  0  0  0  0  0  0  0  0  0
   -1.5327    1.0575    0.5042 H   0  0  0  0  0  0  0  0  0  0  0  0
   -0.7821    1.1703   -1.0780 H   0  0  0  0  0  0  0  0  0  0  0  0
   -2.8080   -0.5200   -1.7330 H   0  0  0  0  0  0  0  0  0  0  0  0
   -2.9555    1.2131   -1.8203 H   0  0  0  0  0  0  0  0  0  0  0  0
   -3.9839    1.3281    0.3845 H   0  0  0  0  0  0  0  0  0  0  0  0
   -3.7949   -0.3846    0.6294 H   0  0  0  0  0  0  0  0  0  0  0  0
   -5.3041   -0.8380   -1.3346 H   0  0  0  0  0  0  0  0  0  0  0  0
   -6.1241    0.1489   -0.1285 H   0  0  0  0  0  0  0  0  0  0  0  0
   -5.4811    0.8931   -1.5898 H   0  0  0  0  0  0  0  0  0  0  0  0
   -0.5057   -0.7018    2.1427 H   0  0  0  0  0  0  0  0  0  0  0  0
    2.1015   -1.6953    0.8974 H   0  0  0  0  0  0  0  0  0  0  0  0
  1 16  1  0  0  0  0
  1 15  1  0  0  0  0
  2  3  1  0  0  0  0
  2  1  1  0  0  0  0
  3  1  1  0  0  0  0
  3  4  1  0  0  0  0
  4 20  1  0  0  0  0
  5 21  1  0  0  0  0
  5  6  1  0  0  0  0
  5  4  1  0  0  0  0
  6 14  1  0  0  0  0
  6 13  1  0  0  0  0
  7 23  1  6  0  0  0
  7  8  1  0  0  0  0
  7  6  1  0  0  0  0
  8 24  1  0  0  0  0
  9  7  1  0  0  0  0
  9 26  1  0  0  0  0
 10  9  1  0  0  0  0
 10 11  1  0  0  0  0
 11 30  1  0  0  0  0
 11 31  1  0  0  0  0
 12 11  1  0  0  0  0
 12 33  1  0  0  0  0
 13 35  1  0  0  0  0
 14 36  1  0  0  0  0
 17  2  1  0  0  0  0
 18  2  1  0  0  0  0
 19  3  1  0  0  0  0
 22  5  1  0  0  0  0
 25  8  1  0  0  0  0
 27  9  1  0  0  0  0
 28 10  1  0  0  0  0
 29 10  1  0  0  0  0
 32 12  1  0  0  0  0
 34 12  1  0  0  0  0
M  END
