omegapdb_2f7p_00.xyz
 OpenBabel11041815263D

 34 35  0  0  1  0  0  0  0  0999 V2000
   -1.2876   -1.0630   -0.4416 C   0  0  1  0  0  0  0  0  0  0  0  0
   -0.0059   -0.5366    0.0236 N   0  0  0  0  0  0  0  0  0  0  0  0
    1.0818   -0.7108   -0.9443 C   0  0  0  0  0  0  0  0  0  0  0  0
    2.3223   -0.0472   -0.4244 C   0  0  0  0  0  0  0  0  0  0  0  0
    3.0708   -0.6504    0.5896 C   0  0  0  0  0  0  0  0  0  0  0  0
    4.1963   -0.0180    1.1093 C   0  0  0  0  0  0  0  0  0  0  0  0
    4.5821    1.2306    0.6218 C   0  0  0  0  0  0  0  0  0  0  0  0
    3.8393    1.8417   -0.3856 C   0  0  0  0  0  0  0  0  0  0  0  0
    2.7140    1.2036   -0.9040 C   0  0  0  0  0  0  0  0  0  0  0  0
   -2.1700   -1.3986    0.7918 C   0  0  1  0  0  0  0  0  0  0  0  0
   -1.3755   -1.5857    1.9453 O   0  0  0  0  0  0  0  0  0  0  0  0
   -3.1408   -0.1891    0.9711 C   0  0  1  0  0  0  0  0  0  0  0  0
   -2.9669    0.4111    2.2403 O   0  0  0  0  0  0  0  0  0  0  0  0
   -2.7670    0.8154   -0.1427 C   0  0  1  0  0  0  0  0  0  0  0  0
   -1.7876    1.7169    0.3505 O   0  0  0  0  0  0  0  0  0  0  0  0
   -2.1217   -0.0416   -1.2280 C   0  0  2  0  0  0  0  0  0  0  0  0
   -3.3722   -0.9762   -2.1714 S   0  0  0  0  0  0  0  0  0  0  0  0
   -1.0810   -1.9600   -1.0272 H   0  0  0  0  0  0  0  0  0  0  0  0
   -0.1232    0.4556    0.2204 H   0  0  0  0  0  0  0  0  0  0  0  0
    0.8284   -0.2962   -1.9281 H   0  0  0  0  0  0  0  0  0  0  0  0
    1.2448   -1.7826   -1.0706 H   0  0  0  0  0  0  0  0  0  0  0  0
    2.7667   -1.6182    0.9687 H   0  0  0  0  0  0  0  0  0  0  0  0
    4.7721   -0.4963    1.8898 H   0  0  0  0  0  0  0  0  0  0  0  0
    5.4572    1.7222    1.0239 H   0  0  0  0  0  0  0  0  0  0  0  0
    4.1348    2.8096   -0.7666 H   0  0  0  0  0  0  0  0  0  0  0  0
    2.1359    1.6767   -1.6885 H   0  0  0  0  0  0  0  0  0  0  0  0
   -2.7427   -2.3060    0.6127 H   0  0  0  0  0  0  0  0  0  0  0  0
   -0.4894   -1.2787    1.6418 H   0  0  0  0  0  0  0  0  0  0  0  0
   -4.1741   -0.5105    0.8580 H   0  0  0  0  0  0  0  0  0  0  0  0
   -2.3069   -0.1675    2.6688 H   0  0  0  0  0  0  0  0  0  0  0  0
   -3.6339    1.3672   -0.5141 H   0  0  0  0  0  0  0  0  0  0  0  0
   -1.9790    1.7501    1.3055 H   0  0  0  0  0  0  0  0  0  0  0  0
   -1.5108    0.5534   -1.9053 H   0  0  0  0  0  0  0  0  0  0  0  0
   -4.1101    0.0790   -2.5346 H   0  0  0  0  0  0  0  0  0  0  0  0
  1 18  1  6  0  0  0
  1  2  1  0  0  0  0
  1 10  1  0  0  0  0
  2 19  1  0  0  0  0
  3  4  1  0  0  0  0
  3  2  1  0  0  0  0
  4  5  1  0  0  0  0
  5 22  1  0  0  0  0
  5  6  2  0  0  0  0
  6 23  1  0  0  0  0
  7 24  1  0  0  0  0
  7  6  1  0  0  0  0
  8  7  2  0  0  0  0
  9  4  2  0  0  0  0
  9  8  1  0  0  0  0
 10 27  1  6  0  0  0
 10 12  1  0  0  0  0
 10 11  1  0  0  0  0
 12 29  1  6  0  0  0
 12 13  1  0  0  0  0
 13 30  1  0  0  0  0
 14 31  1  6  0  0  0
 14 15  1  0  0  0  0
 14 12  1  0  0  0  0
 15 32  1  0  0  0  0
 16 33  1  6  0  0  0
 16  1  1  0  0  0  0
 16 14  1  0  0  0  0
 17 16  1  0  0  0  0
 20  3  1  0  0  0  0
 21  3  1  0  0  0  0
 25  8  1  0  0  0  0
 26  9  1  0  0  0  0
 28 11  1  0  0  0  0
 34 17  1  0  0  0  0
M  END
