omegapdb_1gs5_16.xyz
 OpenBabel11041815263D

 24 23  0  0  1  0  0  0  0  0999 V2000
   -0.1616   -1.0840   -0.0271 C   0  0  2  0  0  0  0  0  0  0  0  0
   -1.3991   -1.8498    0.4123 C   0  0  0  0  0  0  0  0  0  0  0  0
   -2.5041   -1.7177   -0.0549 O   0  0  0  0  0  0  0  0  0  0  0  0
   -1.0978   -2.7577    1.3667 O   0  0  0  0  0  0  0  0  0  0  0  0
    0.7728   -0.7533    1.1475 C   0  0  0  0  0  0  0  0  0  0  0  0
    1.7365    0.3732    0.8201 C   0  0  0  0  0  0  0  0  0  0  0  0
    2.5567    0.1188   -0.4211 C   0  0  0  0  0  0  0  0  0  0  0  0
    2.6431   -0.9426   -0.9873 O   0  0  0  0  0  0  0  0  0  0  0  0
    3.2478    1.1912   -0.8880 O   0  0  0  0  0  0  0  0  0  0  0  0
   -0.5436    0.0665   -0.8165 N   0  0  0  0  0  0  0  0  0  0  0  0
   -1.3314    1.0420   -0.2646 C   0  0  0  0  0  0  0  0  0  0  0  0
   -1.4787    1.1406    0.9459 O   0  0  0  0  0  0  0  0  0  0  0  0
   -1.9810    1.9741   -1.2541 C   0  0  0  0  0  0  0  0  0  0  0  0
    0.3855   -1.7465   -0.6973 H   0  0  0  0  0  0  0  0  0  0  0  0
   -1.9285   -3.2202    1.5559 H   0  0  0  0  0  0  0  0  0  0  0  0
    1.3268   -1.6563    1.3957 H   0  0  0  0  0  0  0  0  0  0  0  0
    0.1872   -0.4633    2.0148 H   0  0  0  0  0  0  0  0  0  0  0  0
    2.4332    0.5119    1.6507 H   0  0  0  0  0  0  0  0  0  0  0  0
    1.1913    1.3110    0.7066 H   0  0  0  0  0  0  0  0  0  0  0  0
    3.0522    1.9512   -0.3279 H   0  0  0  0  0  0  0  0  0  0  0  0
   -0.6294   -0.0787   -1.8086 H   0  0  0  0  0  0  0  0  0  0  0  0
   -2.1494    2.9352   -0.7800 H   0  0  0  0  0  0  0  0  0  0  0  0
   -2.9458    1.5530   -1.5353 H   0  0  0  0  0  0  0  0  0  0  0  0
   -1.3825    2.1014   -2.1536 H   0  0  0  0  0  0  0  0  0  0  0  0
  1 14  1  6  0  0  0
  1  2  1  0  0  0  0
  1  5  1  0  0  0  0
  2  4  1  0  0  0  0
  3  2  2  0  0  0  0
  4 15  1  0  0  0  0
  5 16  1  0  0  0  0
  5 17  1  0  0  0  0
  6  5  1  0  0  0  0
  6 18  1  0  0  0  0
  7  6  1  0  0  0  0
  8  7  2  0  0  0  0
  9  7  1  0  0  0  0
  9 20  1  0  0  0  0
 10 11  1  0  0  0  0
 10  1  1  0  0  0  0
 11 12  2  0  0  0  0
 13 22  1  0  0  0  0
 13 11  1  0  0  0  0
 19  6  1  0  0  0  0
 21 10  1  0  0  0  0
 23 13  1  0  0  0  0
 24 13  1  0  0  0  0
M  END
