omegapdb_1qxw_33.xyz
 OpenBabel11041815263D

 36 36  0  0  1  0  0  0  0  0999 V2000
    4.8408    0.4231    0.3442 C   0  0  0  0  0  0  0  0  0  0  0  0
    4.0731    1.1345    1.4431 C   0  0  0  0  0  0  0  0  0  0  0  0
    3.6326    1.2617    0.0226 C   0  0  0  0  0  0  0  0  0  0  0  0
    2.3573    0.7332   -0.4153 N   0  0  0  0  0  0  0  0  0  0  0  0
    2.0018   -0.6132    0.0336 C   0  0  0  0  0  0  0  0  0  0  0  0
    0.5613   -0.6293    0.5673 C   0  0  0  0  0  0  0  0  0  0  0  0
   -0.4698   -0.6138   -0.5813 C   0  0  1  0  0  0  0  0  0  0  0  0
   -0.3840   -1.9180   -1.2666 N   0  0  0  0  0  0  0  0  0  0  0  0
   -1.8777   -0.3601   -0.0628 C   0  0  0  0  0  0  0  0  0  0  0  0
   -2.8794   -0.0703   -1.1743 C   0  0  0  0  0  0  0  0  0  0  0  0
   -4.3217    0.0138   -0.6813 C   0  0  0  0  0  0  0  0  0  0  0  0
   -4.5433    1.1202    0.3432 C   0  0  0  0  0  0  0  0  0  0  0  0
    0.3992    0.4731    1.4135 O   0  0  0  0  0  0  0  0  0  0  0  0
    0.3656   -1.7792    1.3477 O   0  0  0  0  0  0  0  0  0  0  0  0
    5.8132    0.8018    0.0687 H   0  0  0  0  0  0  0  0  0  0  0  0
    4.7375   -0.6503    0.2985 H   0  0  0  0  0  0  0  0  0  0  0  0
    3.4716    0.5189    2.0954 H   0  0  0  0  0  0  0  0  0  0  0  0
    4.5233    1.9926    1.9168 H   0  0  0  0  0  0  0  0  0  0  0  0
    3.8337    2.2165   -0.4424 H   0  0  0  0  0  0  0  0  0  0  0  0
    2.3243    0.7831   -1.4249 H   0  0  0  0  0  0  0  0  0  0  0  0
    2.1200   -1.3690   -0.7454 H   0  0  0  0  0  0  0  0  0  0  0  0
    2.6219   -0.9114    0.8758 H   0  0  0  0  0  0  0  0  0  0  0  0
   -0.1897    0.2005   -1.2583 H   0  0  0  0  0  0  0  0  0  0  0  0
   -0.0304   -1.8299   -2.2090 H   0  0  0  0  0  0  0  0  0  0  0  0
   -1.3073   -2.3237   -1.3501 H   0  0  0  0  0  0  0  0  0  0  0  0
   -1.8343    0.4689    0.6389 H   0  0  0  0  0  0  0  0  0  0  0  0
   -2.1924   -1.2373    0.5119 H   0  0  0  0  0  0  0  0  0  0  0  0
   -2.6094    0.8730   -1.6588 H   0  0  0  0  0  0  0  0  0  0  0  0
   -2.8139   -0.8414   -1.9464 H   0  0  0  0  0  0  0  0  0  0  0  0
   -4.6065   -0.9481   -0.2484 H   0  0  0  0  0  0  0  0  0  0  0  0
   -4.9809    0.1751   -1.5361 H   0  0  0  0  0  0  0  0  0  0  0  0
   -5.5985    1.2181    0.5930 H   0  0  0  0  0  0  0  0  0  0  0  0
   -4.2017    2.0799   -0.0463 H   0  0  0  0  0  0  0  0  0  0  0  0
   -4.0013    0.9256    1.2665 H   0  0  0  0  0  0  0  0  0  0  0  0
    0.9477    1.1553    0.9872 H   0  0  0  0  0  0  0  0  0  0  0  0
    0.2173   -2.4741    0.6868 H   0  0  0  0  0  0  0  0  0  0  0  0
  1  2  1  0  0  0  0
  2 18  1  0  0  0  0
  2 17  1  0  0  0  0
  3  1  1  0  0  0  0
  3  2  1  0  0  0  0
  4  3  1  0  0  0  0
  4  5  1  0  0  0  0
  5  6  1  0  0  0  0
  5 22  1  0  0  0  0
  6 14  1  0  0  0  0
  6 13  1  0  0  0  0
  7 23  1  6  0  0  0
  7  9  1  0  0  0  0
  7  6  1  0  0  0  0
  8  7  1  0  0  0  0
  9 27  1  0  0  0  0
  9 26  1  0  0  0  0
 10 11  1  0  0  0  0
 10  9  1  0  0  0  0
 11 30  1  0  0  0  0
 11 12  1  0  0  0  0
 12 32  1  0  0  0  0
 12 34  1  0  0  0  0
 15  1  1  0  0  0  0
 16  1  1  0  0  0  0
 19  3  1  0  0  0  0
 20  4  1  0  0  0  0
 21  5  1  0  0  0  0
 24  8  1  0  0  0  0
 25  8  1  0  0  0  0
 28 10  1  0  0  0  0
 29 10  1  0  0  0  0
 31 11  1  0  0  0  0
 33 12  1  0  0  0  0
 35 13  1  0  0  0  0
 36 14  1  0  0  0  0
M  END
