omegapdb_1z1r_11.xyz
 OpenBabel11041815263D

 66 68  0  0  1  0  0  0  0  0999 V2000
    0.9033   -1.8746   -0.5624 C   0  0  2  0  0  0  0  0  0  0  0  0
    0.3417   -3.0302   -1.3998 C   0  0  0  0  0  0  0  0  0  0  0  0
   -1.0940   -3.2596   -1.0300 C   0  0  0  0  0  0  0  0  0  0  0  0
   -2.1286   -2.8472   -1.8740 C   0  0  0  0  0  0  0  0  0  0  0  0
   -3.4583   -2.8939   -1.4628 C   0  0  0  0  0  0  0  0  0  0  0  0
   -3.7645   -3.3327   -0.1746 C   0  0  0  0  0  0  0  0  0  0  0  0
   -2.7506   -3.8074    0.6567 C   0  0  0  0  0  0  0  0  0  0  0  0
   -1.4277   -3.7700    0.2285 C   0  0  0  0  0  0  0  0  0  0  0  0
   -5.0478   -3.3185    0.3092 O   0  0  0  0  0  0  0  0  0  0  0  0
   -5.6393   -2.0117    0.3579 C   0  0  0  0  0  0  0  0  0  0  0  0
   -4.9393   -1.0531    1.3107 C   0  0  0  0  0  0  0  0  0  0  0  0
   -3.6912   -0.3755    0.7564 C   0  0  0  0  0  0  0  0  0  0  0  0
   -3.1658    0.6732    1.7135 C   0  0  0  0  0  0  0  0  0  0  0  0
   -3.6271    0.8432    2.8311 O   0  0  0  0  0  0  0  0  0  0  0  0
   -2.1430    1.4725    1.2441 N   0  0  0  0  0  0  0  0  0  0  0  0
   -1.3117    1.1474    0.1121 C   0  0  2  0  0  0  0  0  0  0  0  0
   -0.3321    0.0109    0.4270 C   0  0  0  0  0  0  0  0  0  0  0  0
    0.1214   -0.1472    1.5575 O   0  0  0  0  0  0  0  0  0  0  0  0
    0.0136   -0.7362   -0.6459 N   0  0  0  0  0  0  0  0  0  0  0  0
   -0.5027    2.3849   -0.2717 C   0  0  0  0  0  0  0  0  0  0  0  0
    0.2567    2.1805   -1.5666 C   0  0  0  0  0  0  0  0  0  0  0  0
   -0.2172    1.5610   -2.5134 O   0  0  0  0  0  0  0  0  0  0  0  0
    1.4938    2.7371   -1.5999 N   0  0  0  0  0  0  0  0  0  0  0  0
    2.3097   -1.4773   -0.9964 C   0  0  2  0  0  0  0  0  0  0  0  0
    3.1171   -2.6364   -0.9526 O   0  0  0  0  0  0  0  0  0  0  0  0
    2.8585   -0.3992   -0.0816 C   0  0  0  0  0  0  0  0  0  0  0  0
    4.1961   -0.0207   -0.5499 N   0  0  0  0  0  0  0  0  0  0  0  0
    5.1250    0.8668    0.5081 S   0  0  0  0  0  0  0  0  0  0  0  0
    5.2137    0.0963    1.7263 O   0  0  0  0  0  0  0  0  0  0  0  0
    6.2881    1.2871   -0.2418 O   0  0  0  0  0  0  0  0  0  0  0  0
    4.1423    2.3101    0.8531 C   0  0  0  0  0  0  0  0  0  0  0  0
    4.3901    3.4825    0.1395 C   0  0  0  0  0  0  0  0  0  0  0  0
    3.5945    4.6011    0.3823 C   0  0  0  0  0  0  0  0  0  0  0  0
    2.5570    4.5355    1.3154 C   0  0  0  0  0  0  0  0  0  0  0  0
    2.3236    3.3540    2.0216 C   0  0  0  0  0  0  0  0  0  0  0  0
    3.1179    2.2308    1.7973 C   0  0  0  0  0  0  0  0  0  0  0  0
    0.9361   -2.1666    0.4887 H   0  0  0  0  0  0  0  0  0  0  0  0
    0.9603   -3.9090   -1.2250 H   0  0  0  0  0  0  0  0  0  0  0  0
    0.4222   -2.7779   -2.4608 H   0  0  0  0  0  0  0  0  0  0  0  0
   -1.8913   -2.4803   -2.8660 H   0  0  0  0  0  0  0  0  0  0  0  0
   -4.2497   -2.5710   -2.1254 H   0  0  0  0  0  0  0  0  0  0  0  0
   -3.0134   -4.1686    1.6415 H   0  0  0  0  0  0  0  0  0  0  0  0
   -0.6434   -4.1122    0.8932 H   0  0  0  0  0  0  0  0  0  0  0  0
   -6.6539   -2.1975    0.7025 H   0  0  0  0  0  0  0  0  0  0  0  0
   -5.6976   -1.5859   -0.6484 H   0  0  0  0  0  0  0  0  0  0  0  0
   -4.7005   -1.5790    2.2349 H   0  0  0  0  0  0  0  0  0  0  0  0
   -5.6532   -0.2744    1.5844 H   0  0  0  0  0  0  0  0  0  0  0  0
   -3.9109    0.0913   -0.2076 H   0  0  0  0  0  0  0  0  0  0  0  0
   -2.8907   -1.0950    0.5697 H   0  0  0  0  0  0  0  0  0  0  0  0
   -1.6823    1.9596    2.0012 H   0  0  0  0  0  0  0  0  0  0  0  0
   -1.9384    0.8768   -0.7359 H   0  0  0  0  0  0  0  0  0  0  0  0
   -0.3762   -0.4768   -1.5417 H   0  0  0  0  0  0  0  0  0  0  0  0
   -1.1926    3.2184   -0.4193 H   0  0  0  0  0  0  0  0  0  0  0  0
    0.1763    2.6460    0.5419 H   0  0  0  0  0  0  0  0  0  0  0  0
    1.8402    3.3064   -0.8453 H   0  0  0  0  0  0  0  0  0  0  0  0
    1.9788    2.7527   -2.4815 H   0  0  0  0  0  0  0  0  0  0  0  0
    2.2501   -1.0819   -2.0227 H   0  0  0  0  0  0  0  0  0  0  0  0
    4.0334   -2.3298   -0.9293 H   0  0  0  0  0  0  0  0  0  0  0  0
    2.9622   -0.8081    0.9223 H   0  0  0  0  0  0  0  0  0  0  0  0
    2.1832    0.4556   -0.0512 H   0  0  0  0  0  0  0  0  0  0  0  0
    4.1886    0.4512   -1.4500 H   0  0  0  0  0  0  0  0  0  0  0  0
    5.2108    3.5129   -0.5635 H   0  0  0  0  0  0  0  0  0  0  0  0
    3.7884    5.5240   -0.1474 H   0  0  0  0  0  0  0  0  0  0  0  0
    1.9459    5.4076    1.5048 H   0  0  0  0  0  0  0  0  0  0  0  0
    1.5339    3.3082    2.7594 H   0  0  0  0  0  0  0  0  0  0  0  0
    2.9601    1.3199    2.3571 H   0  0  0  0  0  0  0  0  0  0  0  0
  1 37  1  1  0  0  0
  2 38  1  0  0  0  0
  2  3  1  0  0  0  0
  2  1  1  0  0  0  0
  3  8  2  0  0  0  0
  4  5  2  0  0  0  0
  4  3  1  0  0  0  0
  5  6  1  0  0  0  0
  6  9  1  0  0  0  0
  6  7  2  0  0  0  0
  7 42  1  0  0  0  0
  8  7  1  0  0  0  0
  8 43  1  0  0  0  0
  9 10  1  0  0  0  0
 10 44  1  0  0  0  0
 10 11  1  0  0  0  0
 11 47  1  0  0  0  0
 11 46  1  0  0  0  0
 12 11  1  0  0  0  0
 12 13  1  0  0  0  0
 13 14  2  0  0  0  0
 15 13  1  0  0  0  0
 15 50  1  0  0  0  0
 16 51  1  6  0  0  0
 16 17  1  0  0  0  0
 16 15  1  0  0  0  0
 17 18  2  0  0  0  0
 19  1  1  0  0  0  0
 19 17  1  0  0  0  0
 20 16  1  0  0  0  0
 20 54  1  0  0  0  0
 21 20  1  0  0  0  0
 22 21  2  0  0  0  0
 23 21  1  0  0  0  0
 23 55  1  0  0  0  0
 24 57  1  6  0  0  0
 24 25  1  0  0  0  0
 24  1  1  0  0  0  0
 24 26  1  0  0  0  0
 25 58  1  0  0  0  0
 26 60  1  0  0  0  0
 26 59  1  0  0  0  0
 27 26  1  0  0  0  0
 27 28  1  0  0  0  0
 28 31  1  0  0  0  0
 28 29  2  0  0  0  0
 30 28  2  0  0  0  0
 31 36  2  0  0  0  0
 32 33  2  0  0  0  0
 32 31  1  0  0  0  0
 33 34  1  0  0  0  0
 34 64  1  0  0  0  0
 34 35  2  0  0  0  0
 35 65  1  0  0  0  0
 36 35  1  0  0  0  0
 36 66  1  0  0  0  0
 39  2  1  0  0  0  0
 40  4  1  0  0  0  0
 41  5  1  0  0  0  0
 45 10  1  0  0  0  0
 48 12  1  0  0  0  0
 49 12  1  0  0  0  0
 52 19  1  0  0  0  0
 53 20  1  0  0  0  0
 56 23  1  0  0  0  0
 61 27  1  0  0  0  0
 62 32  1  0  0  0  0
 63 33  1  0  0  0  0
M  END
