omegapdb_1z1r_28.xyz
 OpenBabel11041815263D

 66 68  0  0  1  0  0  0  0  0999 V2000
    0.6668   -0.0393    0.8980 C   0  0  2  0  0  0  0  0  0  0  0  0
    1.0867   -1.2486    0.0437 C   0  0  0  0  0  0  0  0  0  0  0  0
   -0.1120   -2.1202   -0.1732 C   0  0  0  0  0  0  0  0  0  0  0  0
   -0.5757   -2.9646    0.8399 C   0  0  0  0  0  0  0  0  0  0  0  0
   -1.8154   -3.5794    0.7437 C   0  0  0  0  0  0  0  0  0  0  0  0
   -2.6288   -3.3550   -0.3716 C   0  0  0  0  0  0  0  0  0  0  0  0
   -2.1434   -2.5830   -1.4300 C   0  0  0  0  0  0  0  0  0  0  0  0
   -0.8996   -1.9664   -1.3126 C   0  0  0  0  0  0  0  0  0  0  0  0
   -3.8593   -3.9415   -0.3401 O   0  0  0  0  0  0  0  0  0  0  0  0
   -4.8985   -3.3376   -1.1190 C   0  0  0  0  0  0  0  0  0  0  0  0
   -5.5492   -2.1638   -0.4039 C   0  0  0  0  0  0  0  0  0  0  0  0
   -4.6631   -0.9586   -0.0986 C   0  0  0  0  0  0  0  0  0  0  0  0
   -4.1731   -0.2660   -1.3479 C   0  0  0  0  0  0  0  0  0  0  0  0
   -4.5592   -0.5892   -2.4672 O   0  0  0  0  0  0  0  0  0  0  0  0
   -3.2682    0.7605   -1.2274 N   0  0  0  0  0  0  0  0  0  0  0  0
   -2.7046    1.4498   -0.0749 C   0  0  2  0  0  0  0  0  0  0  0  0
   -1.6962    0.5900    0.7013 C   0  0  0  0  0  0  0  0  0  0  0  0
   -2.0380   -0.1079    1.6545 O   0  0  0  0  0  0  0  0  0  0  0  0
   -0.4153    0.6978    0.2789 N   0  0  0  0  0  0  0  0  0  0  0  0
   -3.7267    2.0274    0.9054 C   0  0  0  0  0  0  0  0  0  0  0  0
   -3.0158    3.0358    1.7914 C   0  0  0  0  0  0  0  0  0  0  0  0
   -2.8306    4.1886    1.4278 O   0  0  0  0  0  0  0  0  0  0  0  0
   -2.5990    2.5466    2.9925 N   0  0  0  0  0  0  0  0  0  0  0  0
    1.8259    0.8858    1.2486 C   0  0  2  0  0  0  0  0  0  0  0  0
    1.3076    1.9257    2.0750 O   0  0  0  0  0  0  0  0  0  0  0  0
    2.5122    1.4752    0.0261 C   0  0  0  0  0  0  0  0  0  0  0  0
    3.5085    2.4469    0.4752 N   0  0  0  0  0  0  0  0  0  0  0  0
    4.5976    2.9303   -0.6990 S   0  0  0  0  0  0  0  0  0  0  0  0
    3.9539    3.0134   -1.9977 O   0  0  0  0  0  0  0  0  0  0  0  0
    5.2871    4.0701   -0.1335 O   0  0  0  0  0  0  0  0  0  0  0  0
    5.6649    1.5185   -0.7185 C   0  0  0  0  0  0  0  0  0  0  0  0
    6.4966    1.2916    0.3770 C   0  0  0  0  0  0  0  0  0  0  0  0
    7.3341    0.1815    0.3601 C   0  0  0  0  0  0  0  0  0  0  0  0
    7.3332   -0.6829   -0.7360 C   0  0  0  0  0  0  0  0  0  0  0  0
    6.4987   -0.4376   -1.8244 C   0  0  0  0  0  0  0  0  0  0  0  0
    5.6540    0.6711   -1.8230 C   0  0  0  0  0  0  0  0  0  0  0  0
    0.2492   -0.4109    1.8339 H   0  0  0  0  0  0  0  0  0  0  0  0
    1.8835   -1.7843    0.5656 H   0  0  0  0  0  0  0  0  0  0  0  0
    1.4841   -0.9117   -0.9162 H   0  0  0  0  0  0  0  0  0  0  0  0
    0.0196   -3.1093    1.7339 H   0  0  0  0  0  0  0  0  0  0  0  0
   -2.1953   -4.2039    1.5403 H   0  0  0  0  0  0  0  0  0  0  0  0
   -2.7273   -2.4189   -2.3217 H   0  0  0  0  0  0  0  0  0  0  0  0
   -0.5508   -1.3363   -2.1224 H   0  0  0  0  0  0  0  0  0  0  0  0
   -4.5446   -3.0509   -2.1051 H   0  0  0  0  0  0  0  0  0  0  0  0
   -5.6362   -4.1277   -1.2443 H   0  0  0  0  0  0  0  0  0  0  0  0
   -5.9593   -2.5291    0.5386 H   0  0  0  0  0  0  0  0  0  0  0  0
   -6.3874   -1.8403   -1.0232 H   0  0  0  0  0  0  0  0  0  0  0  0
   -5.2567   -0.2370    0.4663 H   0  0  0  0  0  0  0  0  0  0  0  0
   -3.8180   -1.2159    0.5398 H   0  0  0  0  0  0  0  0  0  0  0  0
   -3.0501    1.1551   -2.1302 H   0  0  0  0  0  0  0  0  0  0  0  0
   -2.1665    2.2996   -0.4990 H   0  0  0  0  0  0  0  0  0  0  0  0
   -0.2279    1.2866   -0.5152 H   0  0  0  0  0  0  0  0  0  0  0  0
   -4.4925    2.5572    0.3441 H   0  0  0  0  0  0  0  0  0  0  0  0
   -4.1708    1.2305    1.4942 H   0  0  0  0  0  0  0  0  0  0  0  0
   -2.5171    1.5471    3.0916 H   0  0  0  0  0  0  0  0  0  0  0  0
   -1.9521    3.1219    3.5057 H   0  0  0  0  0  0  0  0  0  0  0  0
    2.5640    0.2961    1.7998 H   0  0  0  0  0  0  0  0  0  0  0  0
    2.0080    2.1846    2.6822 H   0  0  0  0  0  0  0  0  0  0  0  0
    3.0358    0.6871   -0.5155 H   0  0  0  0  0  0  0  0  0  0  0  0
    1.7929    1.9336   -0.6576 H   0  0  0  0  0  0  0  0  0  0  0  0
    3.0806    3.2922    0.8468 H   0  0  0  0  0  0  0  0  0  0  0  0
    6.4877    1.9791    1.2109 H   0  0  0  0  0  0  0  0  0  0  0  0
    7.9900   -0.0085    1.1983 H   0  0  0  0  0  0  0  0  0  0  0  0
    7.9878   -1.5433   -0.7427 H   0  0  0  0  0  0  0  0  0  0  0  0
    6.5063   -1.1051   -2.6748 H   0  0  0  0  0  0  0  0  0  0  0  0
    5.0072    0.8967   -2.6589 H   0  0  0  0  0  0  0  0  0  0  0  0
  1 24  1  0  0  0  0
  1 37  1  1  0  0  0
  2 38  1  0  0  0  0
  2  1  1  0  0  0  0
  3  2  1  0  0  0  0
  3  4  2  0  0  0  0
  4 40  1  0  0  0  0
  5  4  1  0  0  0  0
  5 41  1  0  0  0  0
  6  9  1  0  0  0  0
  6  5  2  0  0  0  0
  7  8  2  0  0  0  0
  7  6  1  0  0  0  0
  8  3  1  0  0  0  0
 10 11  1  0  0  0  0
 10  9  1  0  0  0  0
 11 12  1  0  0  0  0
 11 46  1  0  0  0  0
 12 48  1  0  0  0  0
 12 49  1  0  0  0  0
 13 15  1  0  0  0  0
 13 12  1  0  0  0  0
 14 13  2  0  0  0  0
 15 16  1  0  0  0  0
 16 51  1  6  0  0  0
 16 17  1  0  0  0  0
 16 20  1  0  0  0  0
 17 18  2  0  0  0  0
 19 17  1  0  0  0  0
 19  1  1  0  0  0  0
 20 54  1  0  0  0  0
 20 21  1  0  0  0  0
 21 23  1  0  0  0  0
 22 21  2  0  0  0  0
 23 55  1  0  0  0  0
 23 56  1  0  0  0  0
 24 57  1  1  0  0  0
 24 25  1  0  0  0  0
 25 58  1  0  0  0  0
 26 27  1  0  0  0  0
 26 24  1  0  0  0  0
 27 61  1  0  0  0  0
 28 30  2  0  0  0  0
 28 27  1  0  0  0  0
 29 28  2  0  0  0  0
 31 28  1  0  0  0  0
 31 32  2  0  0  0  0
 32 62  1  0  0  0  0
 33 32  1  0  0  0  0
 33 63  1  0  0  0  0
 34 33  2  0  0  0  0
 35 36  2  0  0  0  0
 35 34  1  0  0  0  0
 36 31  1  0  0  0  0
 39  2  1  0  0  0  0
 42  7  1  0  0  0  0
 43  8  1  0  0  0  0
 44 10  1  0  0  0  0
 45 10  1  0  0  0  0
 47 11  1  0  0  0  0
 50 15  1  0  0  0  0
 52 19  1  0  0  0  0
 53 20  1  0  0  0  0
 59 26  1  0  0  0  0
 60 26  1  0  0  0  0
 64 34  1  0  0  0  0
 65 35  1  0  0  0  0
 66 36  1  0  0  0  0
M  END
