omegapdb_1v2k_16.xyz
 OpenBabel11041815263D

 61 65  0  0  0  0  0  0  0  0999 V2000
    8.4969   -2.0192   -1.4087 N   0  0  0  0  0  0  0  0  0  0  0  0
    7.4094   -1.9162   -2.1879 C   0  0  0  0  0  0  0  0  0  0  0  0
    6.2977   -1.1393   -1.9005 C   0  0  0  0  0  0  0  0  0  0  0  0
    6.2606   -0.3822   -0.7156 C   0  0  0  0  0  0  0  0  0  0  0  0
    7.3978   -0.4846    0.1038 C   0  0  0  0  0  0  0  0  0  0  0  0
    8.4558   -1.2998   -0.2815 C   0  0  0  0  0  0  0  0  0  0  0  0
    5.1683    0.3732   -0.3450 N   0  0  0  0  0  0  0  0  0  0  0  0
    5.2405    1.1515    0.8850 C   0  0  0  0  0  0  0  0  0  0  0  0
    3.9099    1.8594    1.1388 C   0  0  0  0  0  0  0  0  0  0  0  0
    2.7688    0.9501    0.7062 C   0  0  0  0  0  0  0  0  0  0  0  0
    2.8143    0.7885   -0.8289 C   0  0  0  0  0  0  0  0  0  0  0  0
    4.2550    0.9333   -1.3260 C   0  0  0  0  0  0  0  0  0  0  0  0
    1.4309    1.5221    1.1281 C   0  0  0  0  0  0  0  0  0  0  0  0
    1.3078    2.7102    1.4194 O   0  0  0  0  0  0  0  0  0  0  0  0
    0.3584    0.6746    1.1222 N   0  0  0  0  0  0  0  0  0  0  0  0
   -0.9594    1.2402    1.3906 C   0  0  0  0  0  0  0  0  0  0  0  0
   -1.9974    0.5336    0.5442 C   0  0  0  0  0  0  0  0  0  0  0  0
   -2.0658   -0.8882    0.9397 N   0  0  0  0  0  0  0  0  0  0  0  0
   -0.7879   -1.4251    1.4466 C   0  0  0  0  0  0  0  0  0  0  0  0
    0.4005   -0.7449    0.7894 C   0  0  0  0  0  0  0  0  0  0  0  0
   -2.7827   -1.8549   -0.2236 S   0  0  0  0  0  0  0  0  0  0  0  0
   -2.7470   -3.2106    0.2888 O   0  0  0  0  0  0  0  0  0  0  0  0
   -2.2568   -1.5714   -1.5507 O   0  0  0  0  0  0  0  0  0  0  0  0
   -4.4302   -1.2235   -0.1380 C   0  0  0  0  0  0  0  0  0  0  0  0
   -4.9524   -0.5698   -1.2308 C   0  0  0  0  0  0  0  0  0  0  0  0
   -6.2721   -0.0703   -1.1738 C   0  0  0  0  0  0  0  0  0  0  0  0
   -7.0352   -0.2509    0.0227 C   0  0  0  0  0  0  0  0  0  0  0  0
   -6.4522   -0.9324    1.1198 C   0  0  0  0  0  0  0  0  0  0  0  0
   -5.1674   -1.4168    1.0490 C   0  0  0  0  0  0  0  0  0  0  0  0
   -8.3532    0.2508    0.0837 C   0  0  0  0  0  0  0  0  0  0  0  0
   -8.8857    0.9049   -1.0044 C   0  0  0  0  0  0  0  0  0  0  0  0
   -8.1451    1.0891   -2.1895 C   0  0  0  0  0  0  0  0  0  0  0  0
   -6.8589    0.6071   -2.2677 C   0  0  0  0  0  0  0  0  0  0  0  0
  -10.5023    1.5216   -0.9324 Cl  0  0  0  0  0  0  0  0  0  0  0  0
    7.4234   -2.4970   -3.1025 H   0  0  0  0  0  0  0  0  0  0  0  0
    5.4687   -1.1547   -2.5916 H   0  0  0  0  0  0  0  0  0  0  0  0
    7.4774    0.0639    1.0291 H   0  0  0  0  0  0  0  0  0  0  0  0
    9.3275   -1.3680    0.3588 H   0  0  0  0  0  0  0  0  0  0  0  0
    5.4481    0.4649    1.7085 H   0  0  0  0  0  0  0  0  0  0  0  0
    6.0603    1.8813    0.8480 H   0  0  0  0  0  0  0  0  0  0  0  0
    3.8279    2.1134    2.1938 H   0  0  0  0  0  0  0  0  0  0  0  0
    3.8449    2.7991    0.5922 H   0  0  0  0  0  0  0  0  0  0  0  0
    2.9260   -0.0288    1.1623 H   0  0  0  0  0  0  0  0  0  0  0  0
    2.1947    1.5550   -1.3000 H   0  0  0  0  0  0  0  0  0  0  0  0
    2.4183   -0.1839   -1.1197 H   0  0  0  0  0  0  0  0  0  0  0  0
    4.4948    1.9899   -1.4922 H   0  0  0  0  0  0  0  0  0  0  0  0
    4.3804    0.4327   -2.2795 H   0  0  0  0  0  0  0  0  0  0  0  0
   -1.2120    1.1625    2.4510 H   0  0  0  0  0  0  0  0  0  0  0  0
   -0.9209    2.2972    1.1395 H   0  0  0  0  0  0  0  0  0  0  0  0
   -2.9767    0.9869    0.6962 H   0  0  0  0  0  0  0  0  0  0  0  0
   -1.7288    0.6335   -0.5115 H   0  0  0  0  0  0  0  0  0  0  0  0
   -0.7542   -1.2663    2.5247 H   0  0  0  0  0  0  0  0  0  0  0  0
   -0.7686   -2.4975    1.2678 H   0  0  0  0  0  0  0  0  0  0  0  0
    0.3564   -0.9080   -0.2907 H   0  0  0  0  0  0  0  0  0  0  0  0
    1.3193   -1.1908    1.1649 H   0  0  0  0  0  0  0  0  0  0  0  0
   -4.3512   -0.4496   -2.1228 H   0  0  0  0  0  0  0  0  0  0  0  0
   -7.0366   -1.0709    2.0207 H   0  0  0  0  0  0  0  0  0  0  0  0
   -4.7177   -1.9444    1.8782 H   0  0  0  0  0  0  0  0  0  0  0  0
   -8.9418    0.1203    0.9819 H   0  0  0  0  0  0  0  0  0  0  0  0
   -8.5980    1.6065   -3.0228 H   0  0  0  0  0  0  0  0  0  0  0  0
   -6.2827    0.7423   -3.1741 H   0  0  0  0  0  0  0  0  0  0  0  0
  1  6  2  0  0  0  0
  2  3  2  0  0  0  0
  2  1  1  0  0  0  0
  3  4  1  0  0  0  0
  4  7  1  0  0  0  0
  4  5  2  0  0  0  0
  5 37  1  0  0  0  0
  6  5  1  0  0  0  0
  6 38  1  0  0  0  0
  7  8  1  0  0  0  0
  8  9  1  0  0  0  0
  8 39  1  0  0  0  0
  9 41  1  0  0  0  0
 10 13  1  0  0  0  0
 10  9  1  0  0  0  0
 10 43  1  0  0  0  0
 11 10  1  0  0  0  0
 12 11  1  0  0  0  0
 12  7  1  0  0  0  0
 13 14  2  0  0  0  0
 15 13  1  0  0  0  0
 15 16  1  0  0  0  0
 16 48  1  0  0  0  0
 17 50  1  0  0  0  0
 17 18  1  0  0  0  0
 17 16  1  0  0  0  0
 18 19  1  0  0  0  0
 19 52  1  0  0  0  0
 20 15  1  0  0  0  0
 20 55  1  0  0  0  0
 20 19  1  0  0  0  0
 21 24  1  0  0  0  0
 21 22  2  0  0  0  0
 21 18  1  0  0  0  0
 23 21  2  0  0  0  0
 24 29  2  0  0  0  0
 25 26  2  0  0  0  0
 25 24  1  0  0  0  0
 26 27  1  0  0  0  0
 27 30  1  0  0  0  0
 27 28  2  0  0  0  0
 28 57  1  0  0  0  0
 29 28  1  0  0  0  0
 29 58  1  0  0  0  0
 30 59  1  0  0  0  0
 31 34  1  0  0  0  0
 31 30  2  0  0  0  0
 32 31  1  0  0  0  0
 33 32  2  0  0  0  0
 33 26  1  0  0  0  0
 35  2  1  0  0  0  0
 36  3  1  0  0  0  0
 40  8  1  0  0  0  0
 42  9  1  0  0  0  0
 44 11  1  0  0  0  0
 45 11  1  0  0  0  0
 46 12  1  0  0  0  0
 47 12  1  0  0  0  0
 49 16  1  0  0  0  0
 51 17  1  0  0  0  0
 53 19  1  0  0  0  0
 54 20  1  0  0  0  0
 56 25  1  0  0  0  0
 60 32  1  0  0  0  0
 61 33  1  0  0  0  0
M  END
