omegapdb_1gs5_15.xyz
 OpenBabel11041815263D

 24 23  0  0  1  0  0  0  0  0999 V2000
   -0.3571   -1.0782   -0.1702 C   0  0  2  0  0  0  0  0  0  0  0  0
   -1.0837   -2.3078    0.3226 C   0  0  0  0  0  0  0  0  0  0  0  0
   -0.7379   -3.4403    0.0949 O   0  0  0  0  0  0  0  0  0  0  0  0
   -2.1389   -1.9983    1.1177 O   0  0  0  0  0  0  0  0  0  0  0  0
    0.8828   -0.8780    0.7095 C   0  0  0  0  0  0  0  0  0  0  0  0
    1.7411    0.2642    0.2005 C   0  0  0  0  0  0  0  0  0  0  0  0
    2.9441    0.5047    1.0814 C   0  0  0  0  0  0  0  0  0  0  0  0
    3.1627   -0.0616    2.1209 O   0  0  0  0  0  0  0  0  0  0  0  0
    3.8055    1.4521    0.6241 O   0  0  0  0  0  0  0  0  0  0  0  0
   -1.2185    0.0832   -0.1965 N   0  0  0  0  0  0  0  0  0  0  0  0
   -1.1847    0.9669   -1.2345 C   0  0  0  0  0  0  0  0  0  0  0  0
   -0.3574    0.8907   -2.1350 O   0  0  0  0  0  0  0  0  0  0  0  0
   -2.2377    2.0465   -1.1937 C   0  0  0  0  0  0  0  0  0  0  0  0
   -0.0413   -1.2720   -1.1945 H   0  0  0  0  0  0  0  0  0  0  0  0
   -2.4964   -2.8466    1.4216 H   0  0  0  0  0  0  0  0  0  0  0  0
    1.4593   -1.8025    0.7197 H   0  0  0  0  0  0  0  0  0  0  0  0
    0.5753   -0.6775    1.7365 H   0  0  0  0  0  0  0  0  0  0  0  0
    1.1629    1.1893    0.1598 H   0  0  0  0  0  0  0  0  0  0  0  0
    2.0727    0.0714   -0.8217 H   0  0  0  0  0  0  0  0  0  0  0  0
    3.4796    1.7866   -0.2196 H   0  0  0  0  0  0  0  0  0  0  0  0
   -1.9513    0.1472    0.4887 H   0  0  0  0  0  0  0  0  0  0  0  0
   -2.9278    1.8834   -2.0189 H   0  0  0  0  0  0  0  0  0  0  0  0
   -1.7570    3.0080   -1.3525 H   0  0  0  0  0  0  0  0  0  0  0  0
   -2.7960    2.0686   -0.2611 H   0  0  0  0  0  0  0  0  0  0  0  0
  1 14  1  6  0  0  0
  1  2  1  0  0  0  0
  1  5  1  0  0  0  0
  2  4  1  0  0  0  0
  3  2  2  0  0  0  0
  4 15  1  0  0  0  0
  5 16  1  0  0  0  0
  5 17  1  0  0  0  0
  6  5  1  0  0  0  0
  6  7  1  0  0  0  0
  7  8  2  0  0  0  0
  9  7  1  0  0  0  0
 10  1  1  0  0  0  0
 10 21  1  0  0  0  0
 11 13  1  0  0  0  0
 11 10  1  0  0  0  0
 12 11  2  0  0  0  0
 13 24  1  0  0  0  0
 18  6  1  0  0  0  0
 19  6  1  0  0  0  0
 20  9  1  0  0  0  0
 22 13  1  0  0  0  0
 23 13  1  0  0  0  0
M  END
