omegapdb_2f7p_06.xyz
 OpenBabel11041815263D

 34 35  0  0  1  0  0  0  0  0999 V2000
   -0.7031    0.0689    0.3737 C   0  0  1  0  0  0  0  0  0  0  0  0
   -0.0228    0.6382    1.5173 N   0  0  0  0  0  0  0  0  0  0  0  0
    1.2444   -0.0418    1.8110 C   0  0  0  0  0  0  0  0  0  0  0  0
    2.2214    0.1492    0.6834 C   0  0  0  0  0  0  0  0  0  0  0  0
    2.8339   -0.9445    0.0706 C   0  0  0  0  0  0  0  0  0  0  0  0
    3.7313   -0.7624   -0.9813 C   0  0  0  0  0  0  0  0  0  0  0  0
    4.0180    0.5227   -1.4346 C   0  0  0  0  0  0  0  0  0  0  0  0
    3.4068    1.6222   -0.8309 C   0  0  0  0  0  0  0  0  0  0  0  0
    2.5142    1.4354    0.2202 C   0  0  0  0  0  0  0  0  0  0  0  0
   -1.2993   -1.3410    0.5684 C   0  0  1  0  0  0  0  0  0  0  0  0
   -1.8491   -1.4109    1.8692 O   0  0  0  0  0  0  0  0  0  0  0  0
   -2.4189   -1.4401   -0.5104 C   0  0  1  0  0  0  0  0  0  0  0  0
   -3.6206   -1.8825    0.0976 O   0  0  0  0  0  0  0  0  0  0  0  0
   -2.5717   -0.0035   -1.0703 C   0  0  1  0  0  0  0  0  0  0  0  0
   -3.9494    0.2404   -1.3159 O   0  0  0  0  0  0  0  0  0  0  0  0
   -1.9336    0.8771   -0.0127 C   0  0  2  0  0  0  0  0  0  0  0  0
   -1.5822    2.5341   -0.6516 S   0  0  0  0  0  0  0  0  0  0  0  0
   -0.0095    0.0628   -0.4726 H   0  0  0  0  0  0  0  0  0  0  0  0
   -0.6389    0.5090    2.3162 H   0  0  0  0  0  0  0  0  0  0  0  0
    1.1172   -1.1151    1.9984 H   0  0  0  0  0  0  0  0  0  0  0  0
    1.6427    0.4009    2.7257 H   0  0  0  0  0  0  0  0  0  0  0  0
    2.6066   -1.9441    0.4212 H   0  0  0  0  0  0  0  0  0  0  0  0
    4.1988   -1.6193   -1.4471 H   0  0  0  0  0  0  0  0  0  0  0  0
    4.7103    0.6678   -2.2525 H   0  0  0  0  0  0  0  0  0  0  0  0
    3.6251    2.6220   -1.1809 H   0  0  0  0  0  0  0  0  0  0  0  0
    2.0281    2.2833    0.6845 H   0  0  0  0  0  0  0  0  0  0  0  0
   -0.5524   -2.1270    0.4410 H   0  0  0  0  0  0  0  0  0  0  0  0
   -2.7624   -1.7122    1.7276 H   0  0  0  0  0  0  0  0  0  0  0  0
   -2.1402   -2.1355   -1.3016 H   0  0  0  0  0  0  0  0  0  0  0  0
   -4.3037   -1.2697   -0.2171 H   0  0  0  0  0  0  0  0  0  0  0  0
   -1.9998    0.0850   -1.9988 H   0  0  0  0  0  0  0  0  0  0  0  0
   -4.0798    1.1945   -1.3525 H   0  0  0  0  0  0  0  0  0  0  0  0
   -2.6051    0.9394    0.8466 H   0  0  0  0  0  0  0  0  0  0  0  0
   -0.8563    2.8964    0.4139 H   0  0  0  0  0  0  0  0  0  0  0  0
  1 18  1  6  0  0  0
  1 10  1  0  0  0  0
  1  2  1  0  0  0  0
  2  3  1  0  0  0  0
  2 19  1  0  0  0  0
  3 20  1  0  0  0  0
  3 21  1  0  0  0  0
  4  3  1  0  0  0  0
  5 22  1  0  0  0  0
  5  4  2  0  0  0  0
  6  5  1  0  0  0  0
  7  6  2  0  0  0  0
  7  8  1  0  0  0  0
  8  9  2  0  0  0  0
  9  4  1  0  0  0  0
  9 26  1  0  0  0  0
 10 27  1  6  0  0  0
 10 11  1  0  0  0  0
 12 29  1  6  0  0  0
 12 13  1  0  0  0  0
 12 10  1  0  0  0  0
 14 31  1  6  0  0  0
 14 12  1  0  0  0  0
 14 16  1  0  0  0  0
 15 14  1  0  0  0  0
 16  1  1  0  0  0  0
 16 33  1  1  0  0  0
 17 16  1  0  0  0  0
 17 34  1  0  0  0  0
 23  6  1  0  0  0  0
 24  7  1  0  0  0  0
 25  8  1  0  0  0  0
 28 11  1  0  0  0  0
 30 13  1  0  0  0  0
 32 15  1  0  0  0  0
M  END
