omegapdb_1z1r_18.xyz
 OpenBabel11041815263D

 66 68  0  0  1  0  0  0  0  0999 V2000
    0.9240    1.2410    0.3808 C   0  0  2  0  0  0  0  0  0  0  0  0
    1.4749    0.5177   -0.8655 C   0  0  0  0  0  0  0  0  0  0  0  0
    0.6439   -0.6871   -1.2042 C   0  0  0  0  0  0  0  0  0  0  0  0
    0.3696   -1.6634   -0.2391 C   0  0  0  0  0  0  0  0  0  0  0  0
   -0.5628   -2.6679   -0.4805 C   0  0  0  0  0  0  0  0  0  0  0  0
   -1.2337   -2.7153   -1.7052 C   0  0  0  0  0  0  0  0  0  0  0  0
   -0.9058   -1.8037   -2.7061 C   0  0  0  0  0  0  0  0  0  0  0  0
    0.0220   -0.7964   -2.4498 C   0  0  0  0  0  0  0  0  0  0  0  0
   -2.2519   -3.6093   -1.9358 O   0  0  0  0  0  0  0  0  0  0  0  0
   -3.3422   -3.4156   -1.0122 C   0  0  0  0  0  0  0  0  0  0  0  0
   -3.9403   -2.0239   -1.1722 C   0  0  0  0  0  0  0  0  0  0  0  0
   -4.8024   -1.5699    0.0129 C   0  0  0  0  0  0  0  0  0  0  0  0
   -4.0841   -1.7465    1.3355 C   0  0  0  0  0  0  0  0  0  0  0  0
   -4.2818   -2.7352    2.0345 O   0  0  0  0  0  0  0  0  0  0  0  0
   -3.1849   -0.7914    1.7093 N   0  0  0  0  0  0  0  0  0  0  0  0
   -2.7196    0.3478    0.9619 C   0  0  2  0  0  0  0  0  0  0  0  0
   -1.2206    0.4842    1.2585 C   0  0  0  0  0  0  0  0  0  0  0  0
   -0.7268   -0.0464    2.2520 O   0  0  0  0  0  0  0  0  0  0  0  0
   -0.5248    1.2345    0.3762 N   0  0  0  0  0  0  0  0  0  0  0  0
   -3.4524    1.6381    1.3472 C   0  0  0  0  0  0  0  0  0  0  0  0
   -3.1605    2.7538    0.3627 C   0  0  0  0  0  0  0  0  0  0  0  0
   -2.8870    2.5289   -0.8133 O   0  0  0  0  0  0  0  0  0  0  0  0
   -3.2515    4.0077    0.8594 N   0  0  0  0  0  0  0  0  0  0  0  0
    1.4254    2.6777    0.5210 C   0  0  2  0  0  0  0  0  0  0  0  0
    0.9353    3.5178   -0.5163 O   0  0  0  0  0  0  0  0  0  0  0  0
    2.9436    2.7713    0.6073 C   0  0  0  0  0  0  0  0  0  0  0  0
    3.4313    1.9937    1.7434 N   0  0  0  0  0  0  0  0  0  0  0  0
    4.9893    1.4094    1.6503 S   0  0  0  0  0  0  0  0  0  0  0  0
    5.3146    0.9894    2.9969 O   0  0  0  0  0  0  0  0  0  0  0  0
    5.8469    2.3218    0.9177 O   0  0  0  0  0  0  0  0  0  0  0  0
    4.7072   -0.0011    0.6184 C   0  0  0  0  0  0  0  0  0  0  0  0
    5.1484    0.0198   -0.7019 C   0  0  0  0  0  0  0  0  0  0  0  0
    4.8464   -1.0645   -1.5260 C   0  0  0  0  0  0  0  0  0  0  0  0
    4.1209   -2.1441   -1.0262 C   0  0  0  0  0  0  0  0  0  0  0  0
    3.7071   -2.1570    0.3076 C   0  0  0  0  0  0  0  0  0  0  0  0
    3.9944   -1.0806    1.1408 C   0  0  0  0  0  0  0  0  0  0  0  0
    1.2210    0.6909    1.2724 H   0  0  0  0  0  0  0  0  0  0  0  0
    1.4667    1.1892   -1.7295 H   0  0  0  0  0  0  0  0  0  0  0  0
    2.5130    0.2394   -0.6791 H   0  0  0  0  0  0  0  0  0  0  0  0
    0.8358   -1.6035    0.7355 H   0  0  0  0  0  0  0  0  0  0  0  0
   -0.7958   -3.3901    0.2904 H   0  0  0  0  0  0  0  0  0  0  0  0
   -1.4262   -1.8606   -3.6524 H   0  0  0  0  0  0  0  0  0  0  0  0
    0.2256   -0.0555   -3.2138 H   0  0  0  0  0  0  0  0  0  0  0  0
   -4.0625   -4.1953   -1.2488 H   0  0  0  0  0  0  0  0  0  0  0  0
   -2.9983   -3.5767    0.0096 H   0  0  0  0  0  0  0  0  0  0  0  0
   -4.5292   -1.9803   -2.0889 H   0  0  0  0  0  0  0  0  0  0  0  0
   -3.1141   -1.3258   -1.3047 H   0  0  0  0  0  0  0  0  0  0  0  0
   -5.1032   -0.5329   -0.1448 H   0  0  0  0  0  0  0  0  0  0  0  0
   -5.7032   -2.1762    0.0835 H   0  0  0  0  0  0  0  0  0  0  0  0
   -2.6158   -1.0216    2.5158 H   0  0  0  0  0  0  0  0  0  0  0  0
   -2.8524    0.1969   -0.1063 H   0  0  0  0  0  0  0  0  0  0  0  0
   -1.0226    1.6156   -0.4190 H   0  0  0  0  0  0  0  0  0  0  0  0
   -4.5274    1.4463    1.3201 H   0  0  0  0  0  0  0  0  0  0  0  0
   -3.1980    1.9237    2.3690 H   0  0  0  0  0  0  0  0  0  0  0  0
   -3.0810    4.7819    0.2414 H   0  0  0  0  0  0  0  0  0  0  0  0
   -3.4523    4.1797    1.8258 H   0  0  0  0  0  0  0  0  0  0  0  0
    0.9872    3.0840    1.4348 H   0  0  0  0  0  0  0  0  0  0  0  0
    1.3815    3.2717   -1.3339 H   0  0  0  0  0  0  0  0  0  0  0  0
    3.3877    2.3529   -0.2984 H   0  0  0  0  0  0  0  0  0  0  0  0
    3.2419    3.8196    0.6556 H   0  0  0  0  0  0  0  0  0  0  0  0
    3.3124    2.4326    2.6511 H   0  0  0  0  0  0  0  0  0  0  0  0
    5.7133    0.8693   -1.0592 H   0  0  0  0  0  0  0  0  0  0  0  0
    5.1750   -1.0632   -2.5562 H   0  0  0  0  0  0  0  0  0  0  0  0
    3.8779   -2.9770   -1.6713 H   0  0  0  0  0  0  0  0  0  0  0  0
    3.1552   -3.0032    0.6922 H   0  0  0  0  0  0  0  0  0  0  0  0
    3.6756   -1.0671    2.1743 H   0  0  0  0  0  0  0  0  0  0  0  0
  1 24  1  0  0  0  0
  1 37  1  1  0  0  0
  2 39  1  0  0  0  0
  2  1  1  0  0  0  0
  3  2  1  0  0  0  0
  3  4  2  0  0  0  0
  4 40  1  0  0  0  0
  5  4  1  0  0  0  0
  5 41  1  0  0  0  0
  6  5  2  0  0  0  0
  7  8  2  0  0  0  0
  7  6  1  0  0  0  0
  8  3  1  0  0  0  0
  9  6  1  0  0  0  0
  9 10  1  0  0  0  0
 10 45  1  0  0  0  0
 11 10  1  0  0  0  0
 11 12  1  0  0  0  0
 12 49  1  0  0  0  0
 12 13  1  0  0  0  0
 13 15  1  0  0  0  0
 13 14  2  0  0  0  0
 15 50  1  0  0  0  0
 16 51  1  6  0  0  0
 16 17  1  0  0  0  0
 16 20  1  0  0  0  0
 16 15  1  0  0  0  0
 17 18  2  0  0  0  0
 19  1  1  0  0  0  0
 19 17  1  0  0  0  0
 20 54  1  0  0  0  0
 21 23  1  0  0  0  0
 21 20  1  0  0  0  0
 22 21  2  0  0  0  0
 23 56  1  0  0  0  0
 24 26  1  0  0  0  0
 24 57  1  1  0  0  0
 25 24  1  0  0  0  0
 26 60  1  0  0  0  0
 26 27  1  0  0  0  0
 27 61  1  0  0  0  0
 28 27  1  0  0  0  0
 28 29  2  0  0  0  0
 30 28  2  0  0  0  0
 31 36  1  0  0  0  0
 31 28  1  0  0  0  0
 32 31  2  0  0  0  0
 33 34  2  0  0  0  0
 33 32  1  0  0  0  0
 34 35  1  0  0  0  0
 35 65  1  0  0  0  0
 35 36  2  0  0  0  0
 36 66  1  0  0  0  0
 38  2  1  0  0  0  0
 42  7  1  0  0  0  0
 43  8  1  0  0  0  0
 44 10  1  0  0  0  0
 46 11  1  0  0  0  0
 47 11  1  0  0  0  0
 48 12  1  0  0  0  0
 52 19  1  0  0  0  0
 53 20  1  0  0  0  0
 55 23  1  0  0  0  0
 58 25  1  0  0  0  0
 59 26  1  0  0  0  0
 62 32  1  0  0  0  0
 63 33  1  0  0  0  0
 64 34  1  0  0  0  0
M  END
