omegapdb_1v2k_15.xyz
 OpenBabel11041815263D

 61 65  0  0  0  0  0  0  0  0999 V2000
    8.4655   -2.3088   -1.0717 N   0  0  0  0  0  0  0  0  0  0  0  0
    7.8550   -1.6422   -2.0580 C   0  0  0  0  0  0  0  0  0  0  0  0
    6.8023   -0.7513   -1.8833 C   0  0  0  0  0  0  0  0  0  0  0  0
    6.3016   -0.5061   -0.5932 C   0  0  0  0  0  0  0  0  0  0  0  0
    6.9385   -1.2070    0.4468 C   0  0  0  0  0  0  0  0  0  0  0  0
    7.9849   -2.0692    0.1579 C   0  0  0  0  0  0  0  0  0  0  0  0
    5.2255    0.3296   -0.3821 N   0  0  0  0  0  0  0  0  0  0  0  0
    5.0242    1.0160    0.8822 C   0  0  0  0  0  0  0  0  0  0  0  0
    3.5393    0.9884    1.2539 C   0  0  0  0  0  0  0  0  0  0  0  0
    2.6738    1.0668   -0.0219 C   0  0  0  0  0  0  0  0  0  0  0  0
    3.4394    1.8517   -1.0794 C   0  0  0  0  0  0  0  0  0  0  0  0
    4.6585    1.0413   -1.5201 C   0  0  0  0  0  0  0  0  0  0  0  0
    1.3599    1.7445    0.3049 C   0  0  0  0  0  0  0  0  0  0  0  0
    1.2492    2.9679    0.2563 O   0  0  0  0  0  0  0  0  0  0  0  0
    0.3307    0.9388    0.7012 N   0  0  0  0  0  0  0  0  0  0  0  0
   -0.9639    1.5502    0.9711 C   0  0  0  0  0  0  0  0  0  0  0  0
   -2.0634    0.6934    0.3778 C   0  0  0  0  0  0  0  0  0  0  0  0
   -2.0646   -0.6293    1.0386 N   0  0  0  0  0  0  0  0  0  0  0  0
   -0.7604   -1.0193    1.6037 C   0  0  0  0  0  0  0  0  0  0  0  0
    0.3983   -0.5197    0.7584 C   0  0  0  0  0  0  0  0  0  0  0  0
   -2.7811   -1.8252    0.1117 S   0  0  0  0  0  0  0  0  0  0  0  0
   -2.3064   -1.7924   -1.2634 O   0  0  0  0  0  0  0  0  0  0  0  0
   -2.6831   -3.0522    0.8777 O   0  0  0  0  0  0  0  0  0  0  0  0
   -4.4452   -1.2334    0.1327 C   0  0  0  0  0  0  0  0  0  0  0  0
   -5.0168   -0.8040   -1.0433 C   0  0  0  0  0  0  0  0  0  0  0  0
   -6.3484   -0.3336   -1.0348 C   0  0  0  0  0  0  0  0  0  0  0  0
   -7.0716   -0.3090    0.1993 C   0  0  0  0  0  0  0  0  0  0  0  0
   -6.4384   -0.7638    1.3826 C   0  0  0  0  0  0  0  0  0  0  0  0
   -5.1425   -1.2223    1.3591 C   0  0  0  0  0  0  0  0  0  0  0  0
   -8.4012    0.1648    0.2113 C   0  0  0  0  0  0  0  0  0  0  0  0
   -8.9833    0.5956   -0.9596 C   0  0  0  0  0  0  0  0  0  0  0  0
   -8.2823    0.5759   -2.1824 C   0  0  0  0  0  0  0  0  0  0  0  0
   -6.9855    0.1175   -2.2139 C   0  0  0  0  0  0  0  0  0  0  0  0
  -10.6141    1.1776   -0.9475 Cl  0  0  0  0  0  0  0  0  0  0  0  0
    8.2322   -1.8209   -3.0580 H   0  0  0  0  0  0  0  0  0  0  0  0
    6.3938   -0.2562   -2.7501 H   0  0  0  0  0  0  0  0  0  0  0  0
    6.6201   -1.1124    1.4739 H   0  0  0  0  0  0  0  0  0  0  0  0
    8.4647   -2.6053    0.9680 H   0  0  0  0  0  0  0  0  0  0  0  0
    5.6209    0.5494    1.6579 H   0  0  0  0  0  0  0  0  0  0  0  0
    5.3730    2.0518    0.7981 H   0  0  0  0  0  0  0  0  0  0  0  0
    3.3113    0.0784    1.8104 H   0  0  0  0  0  0  0  0  0  0  0  0
    3.3157    1.8406    1.8984 H   0  0  0  0  0  0  0  0  0  0  0  0
    2.5080    0.0582   -0.4009 H   0  0  0  0  0  0  0  0  0  0  0  0
    3.7241    2.8187   -0.6680 H   0  0  0  0  0  0  0  0  0  0  0  0
    2.8115    2.0569   -1.9453 H   0  0  0  0  0  0  0  0  0  0  0  0
    5.4024    1.6973   -1.9918 H   0  0  0  0  0  0  0  0  0  0  0  0
    4.3519    0.3023   -2.2632 H   0  0  0  0  0  0  0  0  0  0  0  0
   -0.9593    2.5338    0.5087 H   0  0  0  0  0  0  0  0  0  0  0  0
   -1.1196    1.6875    2.0439 H   0  0  0  0  0  0  0  0  0  0  0  0
   -1.8912    0.5905   -0.6972 H   0  0  0  0  0  0  0  0  0  0  0  0
   -3.0339    1.1650    0.5321 H   0  0  0  0  0  0  0  0  0  0  0  0
   -0.6900   -0.6066    2.6102 H   0  0  0  0  0  0  0  0  0  0  0  0
   -0.7350   -2.1030    1.6883 H   0  0  0  0  0  0  0  0  0  0  0  0
    1.3316   -0.8358    1.2222 H   0  0  0  0  0  0  0  0  0  0  0  0
    0.3385   -0.9632   -0.2392 H   0  0  0  0  0  0  0  0  0  0  0  0
   -4.4455   -0.8367   -1.9620 H   0  0  0  0  0  0  0  0  0  0  0  0
   -6.9929   -0.7485    2.3124 H   0  0  0  0  0  0  0  0  0  0  0  0
   -4.6536   -1.5789    2.2546 H   0  0  0  0  0  0  0  0  0  0  0  0
   -8.9600    0.1879    1.1372 H   0  0  0  0  0  0  0  0  0  0  0  0
   -8.7735    0.9209   -3.0808 H   0  0  0  0  0  0  0  0  0  0  0  0
   -6.4398    0.0973   -3.1486 H   0  0  0  0  0  0  0  0  0  0  0  0
  1  6  2  0  0  0  0
  2  3  2  0  0  0  0
  2  1  1  0  0  0  0
  3  4  1  0  0  0  0
  4  7  1  0  0  0  0
  4  5  2  0  0  0  0
  5 37  1  0  0  0  0
  6  5  1  0  0  0  0
  6 38  1  0  0  0  0
  7  8  1  0  0  0  0
  8  9  1  0  0  0  0
  8 39  1  0  0  0  0
  9 41  1  0  0  0  0
  9 42  1  0  0  0  0
 10 13  1  0  0  0  0
 10  9  1  0  0  0  0
 11 44  1  0  0  0  0
 11 10  1  0  0  0  0
 12 11  1  0  0  0  0
 12  7  1  0  0  0  0
 13 15  1  0  0  0  0
 14 13  2  0  0  0  0
 15 20  1  0  0  0  0
 15 16  1  0  0  0  0
 16 49  1  0  0  0  0
 17 51  1  0  0  0  0
 17 16  1  0  0  0  0
 17 18  1  0  0  0  0
 18 19  1  0  0  0  0
 19 53  1  0  0  0  0
 19 52  1  0  0  0  0
 20 54  1  0  0  0  0
 20 19  1  0  0  0  0
 21 24  1  0  0  0  0
 21 23  2  0  0  0  0
 21 18  1  0  0  0  0
 22 21  2  0  0  0  0
 24 29  2  0  0  0  0
 25 26  2  0  0  0  0
 25 24  1  0  0  0  0
 26 27  1  0  0  0  0
 27 30  1  0  0  0  0
 27 28  2  0  0  0  0
 28 57  1  0  0  0  0
 29 28  1  0  0  0  0
 29 58  1  0  0  0  0
 30 59  1  0  0  0  0
 31 34  1  0  0  0  0
 31 30  2  0  0  0  0
 32 31  1  0  0  0  0
 33 32  2  0  0  0  0
 33 26  1  0  0  0  0
 35  2  1  0  0  0  0
 36  3  1  0  0  0  0
 40  8  1  0  0  0  0
 43 10  1  0  0  0  0
 45 11  1  0  0  0  0
 46 12  1  0  0  0  0
 47 12  1  0  0  0  0
 48 16  1  0  0  0  0
 50 17  1  0  0  0  0
 55 20  1  0  0  0  0
 56 25  1  0  0  0  0
 60 32  1  0  0  0  0
 61 33  1  0  0  0  0
M  END
