omegapdb_1qxw_32.xyz
 OpenBabel11041815263D

 36 36  0  0  1  0  0  0  0  0999 V2000
    4.4187    1.6980    0.6761 C   0  0  0  0  0  0  0  0  0  0  0  0
    4.4659    0.4450   -0.1623 C   0  0  0  0  0  0  0  0  0  0  0  0
    3.2457    0.7617    0.6529 C   0  0  0  0  0  0  0  0  0  0  0  0
    2.1030    1.2076   -0.0892 N   0  0  0  0  0  0  0  0  0  0  0  0
    1.2671    0.1939   -0.7037 C   0  0  0  0  0  0  0  0  0  0  0  0
    0.4185   -0.6649    0.2369 C   0  0  0  0  0  0  0  0  0  0  0  0
   -0.5682   -1.5797   -0.5122 C   0  0  1  0  0  0  0  0  0  0  0  0
   -1.3574   -2.4179    0.3918 N   0  0  0  0  0  0  0  0  0  0  0  0
   -1.4720   -0.8812   -1.5357 C   0  0  0  0  0  0  0  0  0  0  0  0
   -2.3256    0.3060   -1.0903 C   0  0  0  0  0  0  0  0  0  0  0  0
   -3.3660    0.0112   -0.0154 C   0  0  0  0  0  0  0  0  0  0  0  0
   -4.3258    1.1808    0.1642 C   0  0  0  0  0  0  0  0  0  0  0  0
    1.3208   -1.4487    0.9954 O   0  0  0  0  0  0  0  0  0  0  0  0
   -0.3472    0.1421    1.1172 O   0  0  0  0  0  0  0  0  0  0  0  0
    5.0202    1.7356    1.5709 H   0  0  0  0  0  0  0  0  0  0  0  0
    4.2948    2.6307    0.1488 H   0  0  0  0  0  0  0  0  0  0  0  0
    5.0972   -0.3663    0.1640 H   0  0  0  0  0  0  0  0  0  0  0  0
    4.3702    0.5731   -1.2294 H   0  0  0  0  0  0  0  0  0  0  0  0
    3.0950    0.1448    1.5299 H   0  0  0  0  0  0  0  0  0  0  0  0
    1.5531    1.8861    0.4213 H   0  0  0  0  0  0  0  0  0  0  0  0
    0.5892    0.7004   -1.3884 H   0  0  0  0  0  0  0  0  0  0  0  0
    1.9081   -0.4687   -1.2873 H   0  0  0  0  0  0  0  0  0  0  0  0
    0.0669   -2.2612   -1.0824 H   0  0  0  0  0  0  0  0  0  0  0  0
   -1.7090   -1.8759    1.1703 H   0  0  0  0  0  0  0  0  0  0  0  0
   -0.8095   -3.1848    0.7583 H   0  0  0  0  0  0  0  0  0  0  0  0
   -0.8509   -0.5608   -2.3748 H   0  0  0  0  0  0  0  0  0  0  0  0
   -2.1306   -1.6611   -1.9226 H   0  0  0  0  0  0  0  0  0  0  0  0
   -2.8505    0.6706   -1.9783 H   0  0  0  0  0  0  0  0  0  0  0  0
   -1.6903    1.1241   -0.7482 H   0  0  0  0  0  0  0  0  0  0  0  0
   -3.9194   -0.8921   -0.2792 H   0  0  0  0  0  0  0  0  0  0  0  0
   -2.8653   -0.1836    0.9318 H   0  0  0  0  0  0  0  0  0  0  0  0
   -5.0586    0.9846    0.9456 H   0  0  0  0  0  0  0  0  0  0  0  0
   -4.8674    1.3846   -0.7596 H   0  0  0  0  0  0  0  0  0  0  0  0
   -3.7822    2.0861    0.4355 H   0  0  0  0  0  0  0  0  0  0  0  0
    0.7659   -1.9977    1.5645 H   0  0  0  0  0  0  0  0  0  0  0  0
    0.2961    0.5774    1.6908 H   0  0  0  0  0  0  0  0  0  0  0  0
  1 15  1  0  0  0  0
  2 17  1  0  0  0  0
  2  3  1  0  0  0  0
  2  1  1  0  0  0  0
  3  1  1  0  0  0  0
  3 19  1  0  0  0  0
  4 20  1  0  0  0  0
  4  3  1  0  0  0  0
  5  4  1  0  0  0  0
  5  6  1  0  0  0  0
  6 13  1  0  0  0  0
  6 14  1  0  0  0  0
  7 23  1  6  0  0  0
  7  6  1  0  0  0  0
  7  8  1  0  0  0  0
  8 25  1  0  0  0  0
  8 24  1  0  0  0  0
  9 10  1  0  0  0  0
  9  7  1  0  0  0  0
 10 29  1  0  0  0  0
 10 11  1  0  0  0  0
 11 12  1  0  0  0  0
 11 31  1  0  0  0  0
 12 34  1  0  0  0  0
 12 32  1  0  0  0  0
 13 35  1  0  0  0  0
 14 36  1  0  0  0  0
 16  1  1  0  0  0  0
 18  2  1  0  0  0  0
 21  5  1  0  0  0  0
 22  5  1  0  0  0  0
 26  9  1  0  0  0  0
 27  9  1  0  0  0  0
 28 10  1  0  0  0  0
 30 11  1  0  0  0  0
 33 12  1  0  0  0  0
M  END
