omegapdb_1qxw_19.xyz
 OpenBabel11041815263D

 36 36  0  0  1  0  0  0  0  0999 V2000
    3.1480   -0.2282   -1.5373 C   0  0  0  0  0  0  0  0  0  0  0  0
    4.1666    0.7889   -1.0834 C   0  0  0  0  0  0  0  0  0  0  0  0
    3.5138   -0.1240   -0.0880 C   0  0  0  0  0  0  0  0  0  0  0  0
    2.5802    0.4701    0.8368 N   0  0  0  0  0  0  0  0  0  0  0  0
    1.8677   -0.5083    1.6643 C   0  0  0  0  0  0  0  0  0  0  0  0
    0.5249   -0.9676    1.0981 C   0  0  0  0  0  0  0  0  0  0  0  0
   -0.4438    0.2067    0.8199 C   0  0  1  0  0  0  0  0  0  0  0  0
   -0.0225    0.8152   -0.4470 N   0  0  0  0  0  0  0  0  0  0  0  0
   -1.8874   -0.2727    0.7210 C   0  0  0  0  0  0  0  0  0  0  0  0
   -2.8760    0.8412    0.3440 C   0  0  0  0  0  0  0  0  0  0  0  0
   -3.2561    0.8646   -1.1387 C   0  0  0  0  0  0  0  0  0  0  0  0
   -4.1789   -0.2889   -1.5145 C   0  0  0  0  0  0  0  0  0  0  0  0
    0.6812   -1.7213   -0.0798 O   0  0  0  0  0  0  0  0  0  0  0  0
    0.0200   -1.8218    2.1001 O   0  0  0  0  0  0  0  0  0  0  0  0
    2.1779    0.1444   -1.8244 H   0  0  0  0  0  0  0  0  0  0  0  0
    3.4975   -1.0936   -2.0783 H   0  0  0  0  0  0  0  0  0  0  0  0
    3.8503    1.8209   -1.0658 H   0  0  0  0  0  0  0  0  0  0  0  0
    5.2053    0.6245   -1.3230 H   0  0  0  0  0  0  0  0  0  0  0  0
    4.1254   -0.9314    0.3059 H   0  0  0  0  0  0  0  0  0  0  0  0
    3.1003    1.0841    1.4514 H   0  0  0  0  0  0  0  0  0  0  0  0
    2.4594   -1.4151    1.8283 H   0  0  0  0  0  0  0  0  0  0  0  0
    1.6627   -0.0601    2.6368 H   0  0  0  0  0  0  0  0  0  0  0  0
   -0.3694    0.9001    1.6676 H   0  0  0  0  0  0  0  0  0  0  0  0
    0.8872    1.2435   -0.2922 H   0  0  0  0  0  0  0  0  0  0  0  0
   -0.6710    1.5435   -0.7191 H   0  0  0  0  0  0  0  0  0  0  0  0
   -2.1559   -0.7003    1.6849 H   0  0  0  0  0  0  0  0  0  0  0  0
   -1.9386   -1.0780   -0.0157 H   0  0  0  0  0  0  0  0  0  0  0  0
   -2.4599    1.8081    0.6415 H   0  0  0  0  0  0  0  0  0  0  0  0
   -3.7948    0.7252    0.9226 H   0  0  0  0  0  0  0  0  0  0  0  0
   -2.3571    0.8201   -1.7554 H   0  0  0  0  0  0  0  0  0  0  0  0
   -3.7536    1.8084   -1.3695 H   0  0  0  0  0  0  0  0  0  0  0  0
   -5.1096   -0.2341   -0.9496 H   0  0  0  0  0  0  0  0  0  0  0  0
   -4.4274   -0.2694   -2.5743 H   0  0  0  0  0  0  0  0  0  0  0  0
   -3.7183   -1.2527   -1.3016 H   0  0  0  0  0  0  0  0  0  0  0  0
    0.4858   -1.0843   -0.7912 H   0  0  0  0  0  0  0  0  0  0  0  0
   -0.5337   -2.4580    1.6330 H   0  0  0  0  0  0  0  0  0  0  0  0
  1  2  1  0  0  0  0
  1  3  1  0  0  0  0
  2 17  1  0  0  0  0
  2  3  1  0  0  0  0
  3 19  1  0  0  0  0
  3  4  1  0  0  0  0
  4 20  1  0  0  0  0
  4  5  1  0  0  0  0
  5 21  1  0  0  0  0
  5 22  1  0  0  0  0
  6  5  1  0  0  0  0
  6 14  1  0  0  0  0
  7  6  1  0  0  0  0
  7 23  1  1  0  0  0
  8 24  1  0  0  0  0
  8  7  1  0  0  0  0
  9  7  1  0  0  0  0
  9 26  1  0  0  0  0
 10 28  1  0  0  0  0
 10  9  1  0  0  0  0
 10 29  1  0  0  0  0
 11 10  1  0  0  0  0
 12 34  1  0  0  0  0
 12 11  1  0  0  0  0
 12 32  1  0  0  0  0
 13  6  1  0  0  0  0
 15  1  1  0  0  0  0
 16  1  1  0  0  0  0
 18  2  1  0  0  0  0
 25  8  1  0  0  0  0
 27  9  1  0  0  0  0
 30 11  1  0  0  0  0
 31 11  1  0  0  0  0
 33 12  1  0  0  0  0
 35 13  1  0  0  0  0
 36 14  1  0  0  0  0
M  END
