omegapdb_1xom_12.xyz
 OpenBabel11041815263D

 50 52  0  0  1  0  0  0  0  0999 V2000
    7.0387    0.4545    0.0706 O   0  0  0  0  0  0  0  0  0  0  0  0
    6.0813   -0.0828   -0.7235 C   0  0  0  0  0  0  0  0  0  0  0  0
    6.2105   -0.1858   -1.9225 O   0  0  0  0  0  0  0  0  0  0  0  0
    4.8702   -0.4755    0.0798 C   0  0  1  0  0  0  0  0  0  0  0  0
    4.2353    0.8009    0.6820 C   0  0  0  0  0  0  0  0  0  0  0  0
    2.7523    0.5617    0.9155 C   0  0  0  0  0  0  0  0  0  0  0  0
    2.0030    0.4425   -0.4418 C   0  0  2  0  0  0  0  0  0  0  0  0
    2.9048   -0.2906   -1.4689 C   0  0  0  0  0  0  0  0  0  0  0  0
    3.8628   -1.2512   -0.7754 C   0  0  0  0  0  0  0  0  0  0  0  0
    1.7654    1.8004   -0.9376 C   0  0  0  0  0  0  0  0  0  0  0  0
    1.5993    2.8979   -1.3178 N   0  0  0  0  0  0  0  0  0  0  0  0
    0.6625   -0.2313   -0.2020 C   0  0  0  0  0  0  0  0  0  0  0  0
    0.4445   -1.5797   -0.4751 C   0  0  0  0  0  0  0  0  0  0  0  0
   -0.7751   -2.1852   -0.1617 C   0  0  0  0  0  0  0  0  0  0  0  0
   -1.8042   -1.4468    0.4223 C   0  0  0  0  0  0  0  0  0  0  0  0
   -3.0309   -1.9328    0.7383 O   0  0  0  0  0  0  0  0  0  0  0  0
   -3.2491   -3.3050    0.4544 C   0  0  0  0  0  0  0  0  0  0  0  0
   -1.5898   -0.0836    0.7053 C   0  0  0  0  0  0  0  0  0  0  0  0
   -0.3681    0.5008    0.3986 C   0  0  0  0  0  0  0  0  0  0  0  0
   -2.5966    0.6109    1.3083 O   0  0  0  0  0  0  0  0  0  0  0  0
   -3.0788    1.7510    0.5626 C   0  0  0  0  0  0  0  0  0  0  0  0
   -4.2797    2.2552    1.3388 C   0  0  0  0  0  0  0  0  0  0  0  0
   -5.3483    1.1919    1.0525 C   0  0  0  0  0  0  0  0  0  0  0  0
   -5.0385    0.6806   -0.3764 C   0  0  0  0  0  0  0  0  0  0  0  0
   -3.6823    1.3071   -0.7617 C   0  0  0  0  0  0  0  0  0  0  0  0
    7.7575    0.7116   -0.5268 H   0  0  0  0  0  0  0  0  0  0  0  0
    5.2205   -1.1005    0.9030 H   0  0  0  0  0  0  0  0  0  0  0  0
    4.7472    1.0695    1.6039 H   0  0  0  0  0  0  0  0  0  0  0  0
    4.3561    1.6453   -0.0016 H   0  0  0  0  0  0  0  0  0  0  0  0
    2.3004    1.3614    1.5023 H   0  0  0  0  0  0  0  0  0  0  0  0
    2.5997   -0.3681    1.4672 H   0  0  0  0  0  0  0  0  0  0  0  0
    2.2790   -0.7968   -2.2025 H   0  0  0  0  0  0  0  0  0  0  0  0
    3.4944    0.4430   -2.0193 H   0  0  0  0  0  0  0  0  0  0  0  0
    4.3957   -1.8421   -1.5185 H   0  0  0  0  0  0  0  0  0  0  0  0
    3.3094   -1.9424   -0.1396 H   0  0  0  0  0  0  0  0  0  0  0  0
    1.2112   -2.1820   -0.9403 H   0  0  0  0  0  0  0  0  0  0  0  0
   -0.9151   -3.2294   -0.3959 H   0  0  0  0  0  0  0  0  0  0  0  0
   -2.5558   -3.9385    1.0101 H   0  0  0  0  0  0  0  0  0  0  0  0
   -4.2648   -3.5149    0.7716 H   0  0  0  0  0  0  0  0  0  0  0  0
   -3.1506   -3.5093   -0.6132 H   0  0  0  0  0  0  0  0  0  0  0  0
   -0.2287    1.5503    0.6262 H   0  0  0  0  0  0  0  0  0  0  0  0
   -2.2784    2.4852    0.4549 H   0  0  0  0  0  0  0  0  0  0  0  0
   -4.5727    3.2238    0.9303 H   0  0  0  0  0  0  0  0  0  0  0  0
   -4.0580    2.3788    2.3969 H   0  0  0  0  0  0  0  0  0  0  0  0
   -6.3568    1.5902    1.1435 H   0  0  0  0  0  0  0  0  0  0  0  0
   -5.2447    0.3769    1.7654 H   0  0  0  0  0  0  0  0  0  0  0  0
   -4.9719   -0.4043   -0.3820 H   0  0  0  0  0  0  0  0  0  0  0  0
   -5.8130    0.9679   -1.0852 H   0  0  0  0  0  0  0  0  0  0  0  0
   -3.8226    2.1927   -1.3837 H   0  0  0  0  0  0  0  0  0  0  0  0
   -3.0271    0.6276   -1.3056 H   0  0  0  0  0  0  0  0  0  0  0  0
  2  1  1  0  0  0  0
  2  4  1  0  0  0  0
  3  2  2  0  0  0  0
  4  5  1  0  0  0  0
  4 27  1  1  0  0  0
  5  6  1  0  0  0  0
  5 28  1  0  0  0  0
  6 31  1  0  0  0  0
  6 30  1  0  0  0  0
  7 10  1  6  0  0  0
  7 12  1  0  0  0  0
  7  6  1  0  0  0  0
  8  9  1  0  0  0  0
  8  7  1  0  0  0  0
  9 35  1  0  0  0  0
  9  4  1  0  0  0  0
 11 10  3  0  0  0  0
 12 19  1  0  0  0  0
 13 12  2  0  0  0  0
 13 14  1  0  0  0  0
 14 15  2  0  0  0  0
 15 18  1  0  0  0  0
 15 16  1  0  0  0  0
 17 16  1  0  0  0  0
 17 39  1  0  0  0  0
 17 38  1  0  0  0  0
 18 20  1  0  0  0  0
 19 41  1  0  0  0  0
 19 18  2  0  0  0  0
 21 20  1  0  0  0  0
 21 22  1  0  0  0  0
 22 44  1  0  0  0  0
 23 45  1  0  0  0  0
 23 22  1  0  0  0  0
 23 46  1  0  0  0  0
 24 23  1  0  0  0  0
 25 24  1  0  0  0  0
 25 21  1  0  0  0  0
 26  1  1  0  0  0  0
 29  5  1  0  0  0  0
 32  8  1  0  0  0  0
 33  8  1  0  0  0  0
 34  9  1  0  0  0  0
 36 13  1  0  0  0  0
 37 14  1  0  0  0  0
 40 17  1  0  0  0  0
 42 21  1  0  0  0  0
 43 22  1  0  0  0  0
 47 24  1  0  0  0  0
 48 24  1  0  0  0  0
 49 25  1  0  0  0  0
 50 25  1  0  0  0  0
M  END
