omegapdb_1xom_20.xyz
 OpenBabel11041815263D

 50 52  0  0  1  0  0  0  0  0999 V2000
    6.8141    1.1979    0.1776 O   0  0  0  0  0  0  0  0  0  0  0  0
    5.9287    0.4803   -0.5652 C   0  0  0  0  0  0  0  0  0  0  0  0
    6.1108    0.3440   -1.7479 O   0  0  0  0  0  0  0  0  0  0  0  0
    4.7457   -0.0737    0.2061 C   0  0  1  0  0  0  0  0  0  0  0  0
    3.9509    1.0885    0.8515 C   0  0  0  0  0  0  0  0  0  0  0  0
    2.4984    0.6725    1.0298 C   0  0  0  0  0  0  0  0  0  0  0  0
    1.8029    0.5294   -0.3533 C   0  0  2  0  0  0  0  0  0  0  0  0
    2.8124   -0.0367   -1.3836 C   0  0  0  0  0  0  0  0  0  0  0  0
    3.8484   -0.9208   -0.7019 C   0  0  0  0  0  0  0  0  0  0  0  0
    1.4058    1.8691   -0.7934 C   0  0  0  0  0  0  0  0  0  0  0  0
    1.1093    2.9537   -1.1289 N   0  0  0  0  0  0  0  0  0  0  0  0
    0.5525   -0.3165   -0.1792 C   0  0  0  0  0  0  0  0  0  0  0  0
    0.4868   -1.6520   -0.5682 C   0  0  0  0  0  0  0  0  0  0  0  0
   -0.6613   -2.4094   -0.3211 C   0  0  0  0  0  0  0  0  0  0  0  0
   -1.7636   -1.8458    0.3205 C   0  0  0  0  0  0  0  0  0  0  0  0
   -2.9129   -2.5087    0.6133 O   0  0  0  0  0  0  0  0  0  0  0  0
   -2.9671   -3.8728    0.2253 C   0  0  0  0  0  0  0  0  0  0  0  0
   -1.7128   -0.4889    0.7011 C   0  0  0  0  0  0  0  0  0  0  0  0
   -0.5606    0.2454    0.4544 C   0  0  0  0  0  0  0  0  0  0  0  0
   -2.7337    0.1304    1.3556 O   0  0  0  0  0  0  0  0  0  0  0  0
   -4.0312    0.1451    0.7057 C   0  0  0  0  0  0  0  0  0  0  0  0
   -4.7328    1.3629    1.2773 C   0  0  0  0  0  0  0  0  0  0  0  0
   -4.0585    2.5477    0.5637 C   0  0  0  0  0  0  0  0  0  0  0  0
   -3.5210    1.9769   -0.7739 C   0  0  0  0  0  0  0  0  0  0  0  0
   -3.9075    0.4887   -0.7698 C   0  0  0  0  0  0  0  0  0  0  0  0
    6.5150    1.2141    1.0941 H   0  0  0  0  0  0  0  0  0  0  0  0
    5.1462   -0.7044    1.0050 H   0  0  0  0  0  0  0  0  0  0  0  0
    4.3826    1.3682    1.8138 H   0  0  0  0  0  0  0  0  0  0  0  0
    3.9928    1.9781    0.2178 H   0  0  0  0  0  0  0  0  0  0  0  0
    2.4414   -0.2916    1.5384 H   0  0  0  0  0  0  0  0  0  0  0  0
    1.9454    1.3897    1.6358 H   0  0  0  0  0  0  0  0  0  0  0  0
    2.2723   -0.5668   -2.1665 H   0  0  0  0  0  0  0  0  0  0  0  0
    3.3319    0.7879   -1.8727 H   0  0  0  0  0  0  0  0  0  0  0  0
    4.4650   -1.4171   -1.4487 H   0  0  0  0  0  0  0  0  0  0  0  0
    3.3554   -1.6916   -0.1091 H   0  0  0  0  0  0  0  0  0  0  0  0
    1.3162   -2.1272   -1.0714 H   0  0  0  0  0  0  0  0  0  0  0  0
   -0.6806   -3.4428   -0.6317 H   0  0  0  0  0  0  0  0  0  0  0  0
   -2.1885   -4.4542    0.7212 H   0  0  0  0  0  0  0  0  0  0  0  0
   -3.9416   -4.2315    0.5383 H   0  0  0  0  0  0  0  0  0  0  0  0
   -2.8685   -3.9797   -0.8559 H   0  0  0  0  0  0  0  0  0  0  0  0
   -0.5642    1.2860    0.7554 H   0  0  0  0  0  0  0  0  0  0  0  0
   -4.5384   -0.7977    0.8973 H   0  0  0  0  0  0  0  0  0  0  0  0
   -4.6449    1.4032    2.3613 H   0  0  0  0  0  0  0  0  0  0  0  0
   -5.7919    1.3027    1.0219 H   0  0  0  0  0  0  0  0  0  0  0  0
   -3.2375    2.9274    1.1676 H   0  0  0  0  0  0  0  0  0  0  0  0
   -4.7540    3.3700    0.4087 H   0  0  0  0  0  0  0  0  0  0  0  0
   -3.9358    2.4929   -1.6373 H   0  0  0  0  0  0  0  0  0  0  0  0
   -2.4387    2.0848   -0.8273 H   0  0  0  0  0  0  0  0  0  0  0  0
   -3.1969   -0.1457   -1.2989 H   0  0  0  0  0  0  0  0  0  0  0  0
   -4.8872    0.3381   -1.2270 H   0  0  0  0  0  0  0  0  0  0  0  0
  1 26  1  0  0  0  0
  2  1  1  0  0  0  0
  2  4  1  0  0  0  0
  3  2  2  0  0  0  0
  4  5  1  0  0  0  0
  4 27  1  1  0  0  0
  5  6  1  0  0  0  0
  5 28  1  0  0  0  0
  6 30  1  0  0  0  0
  6 31  1  0  0  0  0
  7 10  1  6  0  0  0
  7 12  1  0  0  0  0
  7  6  1  0  0  0  0
  8  9  1  0  0  0  0
  8  7  1  0  0  0  0
  9 35  1  0  0  0  0
  9  4  1  0  0  0  0
 11 10  3  0  0  0  0
 12 19  2  0  0  0  0
 13 14  2  0  0  0  0
 13 12  1  0  0  0  0
 14 15  1  0  0  0  0
 15 16  1  0  0  0  0
 15 18  2  0  0  0  0
 17 39  1  0  0  0  0
 17 16  1  0  0  0  0
 17 38  1  0  0  0  0
 18 20  1  0  0  0  0
 19 18  1  0  0  0  0
 19 41  1  0  0  0  0
 21 42  1  0  0  0  0
 21 22  1  0  0  0  0
 21 20  1  0  0  0  0
 22 43  1  0  0  0  0
 23 45  1  0  0  0  0
 23 22  1  0  0  0  0
 24 25  1  0  0  0  0
 24 23  1  0  0  0  0
 25 21  1  0  0  0  0
 29  5  1  0  0  0  0
 32  8  1  0  0  0  0
 33  8  1  0  0  0  0
 34  9  1  0  0  0  0
 36 13  1  0  0  0  0
 37 14  1  0  0  0  0
 40 17  1  0  0  0  0
 44 22  1  0  0  0  0
 46 23  1  0  0  0  0
 47 24  1  0  0  0  0
 48 24  1  0  0  0  0
 49 25  1  0  0  0  0
 50 25  1  0  0  0  0
M  END
