omegapdb_2f7p_16.xyz
 OpenBabel11041815263D

 34 35  0  0  1  0  0  0  0  0999 V2000
   -0.7071   -0.2340   -0.2592 C   0  0  1  0  0  0  0  0  0  0  0  0
   -0.4051    0.6848    0.8576 N   0  0  0  0  0  0  0  0  0  0  0  0
    0.8414    0.3532    1.5865 C   0  0  0  0  0  0  0  0  0  0  0  0
    2.0594    0.3220    0.7052 C   0  0  0  0  0  0  0  0  0  0  0  0
    2.5939   -0.8929    0.2688 C   0  0  0  0  0  0  0  0  0  0  0  0
    3.6863   -0.9174   -0.5966 C   0  0  0  0  0  0  0  0  0  0  0  0
    4.2538    0.2765   -1.0361 C   0  0  0  0  0  0  0  0  0  0  0  0
    3.7301    1.4947   -0.6042 C   0  0  0  0  0  0  0  0  0  0  0  0
    2.6396    1.5140    0.2608 C   0  0  0  0  0  0  0  0  0  0  0  0
   -1.5640   -1.4034    0.2523 C   0  0  1  0  0  0  0  0  0  0  0  0
   -1.0400   -2.1181    1.3516 O   0  0  0  0  0  0  0  0  0  0  0  0
   -2.8997   -0.7257    0.5706 C   0  0  1  0  0  0  0  0  0  0  0  0
   -2.8084   -0.0854    1.8416 O   0  0  0  0  0  0  0  0  0  0  0  0
   -3.0907    0.3087   -0.5689 C   0  0  1  0  0  0  0  0  0  0  0  0
   -3.5637    1.5412   -0.0726 O   0  0  0  0  0  0  0  0  0  0  0  0
   -1.6865    0.4537   -1.2187 C   0  0  2  0  0  0  0  0  0  0  0  0
   -1.5894   -0.1935   -2.9190 S   0  0  0  0  0  0  0  0  0  0  0  0
    0.1976   -0.5640   -0.7727 H   0  0  0  0  0  0  0  0  0  0  0  0
   -0.2905    1.6164    0.4671 H   0  0  0  0  0  0  0  0  0  0  0  0
    0.9585    1.1056    2.3676 H   0  0  0  0  0  0  0  0  0  0  0  0
    0.7029   -0.6141    2.0614 H   0  0  0  0  0  0  0  0  0  0  0  0
    2.1476   -1.8185    0.6119 H   0  0  0  0  0  0  0  0  0  0  0  0
    4.0907   -1.8641   -0.9280 H   0  0  0  0  0  0  0  0  0  0  0  0
    5.1012    0.2592   -1.7075 H   0  0  0  0  0  0  0  0  0  0  0  0
    4.1739    2.4237   -0.9353 H   0  0  0  0  0  0  0  0  0  0  0  0
    2.2413    2.4624    0.6039 H   0  0  0  0  0  0  0  0  0  0  0  0
   -1.6938   -2.1127   -0.5678 H   0  0  0  0  0  0  0  0  0  0  0  0
   -1.4625   -1.7271    2.1293 H   0  0  0  0  0  0  0  0  0  0  0  0
   -3.7274   -1.4279    0.6383 H   0  0  0  0  0  0  0  0  0  0  0  0
   -1.9541    0.4123    1.7751 H   0  0  0  0  0  0  0  0  0  0  0  0
   -3.7970   -0.0646   -1.3110 H   0  0  0  0  0  0  0  0  0  0  0  0
   -3.5902    1.4264    0.8900 H   0  0  0  0  0  0  0  0  0  0  0  0
   -1.4618    1.5148   -1.3333 H   0  0  0  0  0  0  0  0  0  0  0  0
   -2.0863   -1.4062   -2.6532 H   0  0  0  0  0  0  0  0  0  0  0  0
  1 18  1  6  0  0  0
  1 10  1  0  0  0  0
  1  2  1  0  0  0  0
  2  3  1  0  0  0  0
  3 21  1  0  0  0  0
  3 20  1  0  0  0  0
  4  3  1  0  0  0  0
  5 22  1  0  0  0  0
  5  4  1  0  0  0  0
  6  5  2  0  0  0  0
  7  8  2  0  0  0  0
  7  6  1  0  0  0  0
  8  9  1  0  0  0  0
  9 26  1  0  0  0  0
  9  4  2  0  0  0  0
 10 27  1  6  0  0  0
 10 12  1  0  0  0  0
 10 11  1  0  0  0  0
 11 28  1  0  0  0  0
 12 29  1  6  0  0  0
 12 13  1  0  0  0  0
 14 31  1  6  0  0  0
 14 15  1  0  0  0  0
 14 12  1  0  0  0  0
 15 32  1  0  0  0  0
 16 33  1  6  0  0  0
 16 14  1  0  0  0  0
 16  1  1  0  0  0  0
 17 34  1  0  0  0  0
 17 16  1  0  0  0  0
 19  2  1  0  0  0  0
 23  6  1  0  0  0  0
 24  7  1  0  0  0  0
 25  8  1  0  0  0  0
 30 13  1  0  0  0  0
M  END
