omegapdb_1z1r_17.xyz
 OpenBabel11041815263D

 66 68  0  0  1  0  0  0  0  0999 V2000
    0.9638   -2.0744    0.6395 C   0  0  2  0  0  0  0  0  0  0  0  0
    0.4861   -3.4909    0.2709 C   0  0  0  0  0  0  0  0  0  0  0  0
   -1.0171   -3.5081    0.2554 C   0  0  0  0  0  0  0  0  0  0  0  0
   -1.7121   -3.7219   -0.9366 C   0  0  0  0  0  0  0  0  0  0  0  0
   -3.0807   -3.4747   -1.0253 C   0  0  0  0  0  0  0  0  0  0  0  0
   -3.7695   -2.9902    0.0840 C   0  0  0  0  0  0  0  0  0  0  0  0
   -3.1078   -2.8579    1.3069 C   0  0  0  0  0  0  0  0  0  0  0  0
   -1.7440   -3.1201    1.3871 C   0  0  0  0  0  0  0  0  0  0  0  0
   -5.0828   -2.6073   -0.0587 O   0  0  0  0  0  0  0  0  0  0  0  0
   -5.2241   -1.1790    0.0811 C   0  0  0  0  0  0  0  0  0  0  0  0
   -4.4772   -0.4562   -1.0299 C   0  0  0  0  0  0  0  0  0  0  0  0
   -4.3277    1.0541   -0.8102 C   0  0  0  0  0  0  0  0  0  0  0  0
   -3.7682    1.3870    0.5579 C   0  0  0  0  0  0  0  0  0  0  0  0
   -4.5056    1.7006    1.4854 O   0  0  0  0  0  0  0  0  0  0  0  0
   -2.4141    1.3134    0.7334 N   0  0  0  0  0  0  0  0  0  0  0  0
   -1.4254    0.7744   -0.1636 C   0  0  2  0  0  0  0  0  0  0  0  0
   -0.4941   -0.1085    0.6692 C   0  0  0  0  0  0  0  0  0  0  0  0
   -0.3185    0.1103    1.8672 O   0  0  0  0  0  0  0  0  0  0  0  0
    0.1436   -1.0789   -0.0199 N   0  0  0  0  0  0  0  0  0  0  0  0
   -0.5866    1.8661   -0.8448 C   0  0  0  0  0  0  0  0  0  0  0  0
    0.3504    1.2425   -1.8606 C   0  0  0  0  0  0  0  0  0  0  0  0
   -0.0185    0.3269   -2.5946 O   0  0  0  0  0  0  0  0  0  0  0  0
    1.6044    1.7410   -1.8832 N   0  0  0  0  0  0  0  0  0  0  0  0
    2.4300   -1.8148    0.2950 C   0  0  2  0  0  0  0  0  0  0  0  0
    3.2920   -2.8684    0.7076 O   0  0  0  0  0  0  0  0  0  0  0  0
    2.8734   -0.4955    0.8982 C   0  0  0  0  0  0  0  0  0  0  0  0
    4.1959   -0.1461    0.3770 N   0  0  0  0  0  0  0  0  0  0  0  0
    4.9687    1.0830    1.1949 S   0  0  0  0  0  0  0  0  0  0  0  0
    6.3218    1.1155    0.6818 O   0  0  0  0  0  0  0  0  0  0  0  0
    4.7111    1.0060    2.6211 O   0  0  0  0  0  0  0  0  0  0  0  0
    4.0681    2.4832    0.5794 C   0  0  0  0  0  0  0  0  0  0  0  0
    4.5078    3.1061   -0.5875 C   0  0  0  0  0  0  0  0  0  0  0  0
    3.8108    4.2157   -1.0598 C   0  0  0  0  0  0  0  0  0  0  0  0
    2.6835    4.6801   -0.3775 C   0  0  0  0  0  0  0  0  0  0  0  0
    2.2551    4.0418    0.7878 C   0  0  0  0  0  0  0  0  0  0  0  0
    2.9514    2.9373    1.2793 C   0  0  0  0  0  0  0  0  0  0  0  0
    0.8148   -1.9090    1.7090 H   0  0  0  0  0  0  0  0  0  0  0  0
    0.8715   -3.7641   -0.7140 H   0  0  0  0  0  0  0  0  0  0  0  0
    0.9060   -4.1992    0.9847 H   0  0  0  0  0  0  0  0  0  0  0  0
   -1.1699   -4.0381   -1.8196 H   0  0  0  0  0  0  0  0  0  0  0  0
   -3.6136   -3.5954   -1.9586 H   0  0  0  0  0  0  0  0  0  0  0  0
   -3.6549   -2.5211    2.1771 H   0  0  0  0  0  0  0  0  0  0  0  0
   -1.2347   -2.9669    2.3310 H   0  0  0  0  0  0  0  0  0  0  0  0
   -6.2938   -0.9865    0.0403 H   0  0  0  0  0  0  0  0  0  0  0  0
   -4.8616   -0.8662    1.0616 H   0  0  0  0  0  0  0  0  0  0  0  0
   -3.4914   -0.9131   -1.1128 H   0  0  0  0  0  0  0  0  0  0  0  0
   -4.9805   -0.6361   -1.9805 H   0  0  0  0  0  0  0  0  0  0  0  0
   -3.7054    1.4693   -1.6047 H   0  0  0  0  0  0  0  0  0  0  0  0
   -5.3000    1.5407   -0.8546 H   0  0  0  0  0  0  0  0  0  0  0  0
   -2.1041    1.3998    1.6944 H   0  0  0  0  0  0  0  0  0  0  0  0
   -1.8916    0.1804   -0.9440 H   0  0  0  0  0  0  0  0  0  0  0  0
   -0.0731   -1.1781   -1.0035 H   0  0  0  0  0  0  0  0  0  0  0  0
   -0.0475    2.4428   -0.0918 H   0  0  0  0  0  0  0  0  0  0  0  0
   -1.2604    2.5431   -1.3730 H   0  0  0  0  0  0  0  0  0  0  0  0
    1.8885    2.5012   -1.2892 H   0  0  0  0  0  0  0  0  0  0  0  0
    2.2603    1.3681   -2.5490 H   0  0  0  0  0  0  0  0  0  0  0  0
    2.5313   -1.7754   -0.7920 H   0  0  0  0  0  0  0  0  0  0  0  0
    3.2624   -2.9080    1.6715 H   0  0  0  0  0  0  0  0  0  0  0  0
    2.1746    0.2923    0.6232 H   0  0  0  0  0  0  0  0  0  0  0  0
    2.8718   -0.5847    1.9899 H   0  0  0  0  0  0  0  0  0  0  0  0
    4.8258   -0.9482    0.3727 H   0  0  0  0  0  0  0  0  0  0  0  0
    5.3913    2.7355   -1.0881 H   0  0  0  0  0  0  0  0  0  0  0  0
    4.1464    4.7206   -1.9551 H   0  0  0  0  0  0  0  0  0  0  0  0
    2.1476    5.5435   -0.7472 H   0  0  0  0  0  0  0  0  0  0  0  0
    1.3915    4.4124    1.3230 H   0  0  0  0  0  0  0  0  0  0  0  0
    2.6550    2.4481    2.1967 H   0  0  0  0  0  0  0  0  0  0  0  0
  1 37  1  1  0  0  0
  2  1  1  0  0  0  0
  2 39  1  0  0  0  0
  3  2  1  0  0  0  0
  3  8  2  0  0  0  0
  4  3  1  0  0  0  0
  5  4  2  0  0  0  0
  5  6  1  0  0  0  0
  6  7  2  0  0  0  0
  7  8  1  0  0  0  0
  7 42  1  0  0  0  0
  8 43  1  0  0  0  0
  9 10  1  0  0  0  0
  9  6  1  0  0  0  0
 10 45  1  0  0  0  0
 11 12  1  0  0  0  0
 11 10  1  0  0  0  0
 12 13  1  0  0  0  0
 13 15  1  0  0  0  0
 13 14  2  0  0  0  0
 15 50  1  0  0  0  0
 16 51  1  6  0  0  0
 16 17  1  0  0  0  0
 16 15  1  0  0  0  0
 17 18  2  0  0  0  0
 19  1  1  0  0  0  0
 19 17  1  0  0  0  0
 20 16  1  0  0  0  0
 20 53  1  0  0  0  0
 21 20  1  0  0  0  0
 22 21  2  0  0  0  0
 23 21  1  0  0  0  0
 23 55  1  0  0  0  0
 24 57  1  6  0  0  0
 24  1  1  0  0  0  0
 24 25  1  0  0  0  0
 24 26  1  0  0  0  0
 25 58  1  0  0  0  0
 26 60  1  0  0  0  0
 27 26  1  0  0  0  0
 27 28  1  0  0  0  0
 28 30  2  0  0  0  0
 29 28  2  0  0  0  0
 31 28  1  0  0  0  0
 31 36  2  0  0  0  0
 32 31  1  0  0  0  0
 33 32  2  0  0  0  0
 33 34  1  0  0  0  0
 34 35  2  0  0  0  0
 35 36  1  0  0  0  0
 35 65  1  0  0  0  0
 36 66  1  0  0  0  0
 38  2  1  0  0  0  0
 40  4  1  0  0  0  0
 41  5  1  0  0  0  0
 44 10  1  0  0  0  0
 46 11  1  0  0  0  0
 47 11  1  0  0  0  0
 48 12  1  0  0  0  0
 49 12  1  0  0  0  0
 52 19  1  0  0  0  0
 54 20  1  0  0  0  0
 56 23  1  0  0  0  0
 59 26  1  0  0  0  0
 61 27  1  0  0  0  0
 62 32  1  0  0  0  0
 63 33  1  0  0  0  0
 64 34  1  0  0  0  0
M  END
