omegapdb_1gs5_00.xyz
 OpenBabel11041815263D

 24 23  0  0  1  0  0  0  0  0999 V2000
   -0.2647   -0.8507    0.0606 C   0  0  2  0  0  0  0  0  0  0  0  0
   -1.1354   -2.0644    0.2973 C   0  0  0  0  0  0  0  0  0  0  0  0
   -2.3165   -2.0182    0.5624 O   0  0  0  0  0  0  0  0  0  0  0  0
   -0.4266   -3.2003    0.2187 O   0  0  0  0  0  0  0  0  0  0  0  0
    0.6539   -0.6536    1.2753 C   0  0  0  0  0  0  0  0  0  0  0  0
    1.6941    0.4516    1.0775 C   0  0  0  0  0  0  0  0  0  0  0  0
    2.7693   -0.0131    0.1111 C   0  0  0  0  0  0  0  0  0  0  0  0
    3.7418   -0.6278    0.4846 O   0  0  0  0  0  0  0  0  0  0  0  0
    2.5568    0.2403   -1.1882 O   0  0  0  0  0  0  0  0  0  0  0  0
   -1.1573    0.2689   -0.1488 N   0  0  0  0  0  0  0  0  0  0  0  0
   -0.8997    1.2895   -0.9936 C   0  0  0  0  0  0  0  0  0  0  0  0
    0.1858    1.4372   -1.5622 O   0  0  0  0  0  0  0  0  0  0  0  0
   -2.0265    2.2627   -1.2098 C   0  0  0  0  0  0  0  0  0  0  0  0
    0.3314   -1.0137   -0.8379 H   0  0  0  0  0  0  0  0  0  0  0  0
   -1.0414   -3.9222    0.4220 H   0  0  0  0  0  0  0  0  0  0  0  0
    0.0203   -0.4155    2.1317 H   0  0  0  0  0  0  0  0  0  0  0  0
    1.1687   -1.5908    1.4879 H   0  0  0  0  0  0  0  0  0  0  0  0
    1.2180    1.3711    0.7414 H   0  0  0  0  0  0  0  0  0  0  0  0
    2.1870    0.6396    2.0280 H   0  0  0  0  0  0  0  0  0  0  0  0
    1.7064    0.7219   -1.3085 H   0  0  0  0  0  0  0  0  0  0  0  0
   -2.0943    0.1422    0.2043 H   0  0  0  0  0  0  0  0  0  0  0  0
   -2.3170    2.2207   -2.2573 H   0  0  0  0  0  0  0  0  0  0  0  0
   -1.6612    3.2664   -1.0096 H   0  0  0  0  0  0  0  0  0  0  0  0
   -2.8928    2.0582   -0.5870 H   0  0  0  0  0  0  0  0  0  0  0  0
  1 14  1  6  0  0  0
  1  2  1  0  0  0  0
  1  5  1  0  0  0  0
  2  3  2  0  0  0  0
  4  2  1  0  0  0  0
  4 15  1  0  0  0  0
  5 17  1  0  0  0  0
  5 16  1  0  0  0  0
  6  5  1  0  0  0  0
  6 19  1  0  0  0  0
  7  8  2  0  0  0  0
  7  6  1  0  0  0  0
  9  7  1  0  0  0  0
 10  1  1  0  0  0  0
 10 21  1  0  0  0  0
 11 10  1  0  0  0  0
 12 11  2  0  0  0  0
 13 23  1  0  0  0  0
 13 11  1  0  0  0  0
 13 24  1  0  0  0  0
 18  6  1  0  0  0  0
 20  9  1  0  0  0  0
 22 13  1  0  0  0  0
M  END
