omegapdb_1gs5_09.xyz
 OpenBabel11041815263D

 24 23  0  0  1  0  0  0  0  0999 V2000
   -0.4569   -1.1226   -0.3637 C   0  0  2  0  0  0  0  0  0  0  0  0
   -1.0487   -1.9329    0.7673 C   0  0  0  0  0  0  0  0  0  0  0  0
   -1.7919   -1.4988    1.6174 O   0  0  0  0  0  0  0  0  0  0  0  0
   -0.6350   -3.2136    0.7221 O   0  0  0  0  0  0  0  0  0  0  0  0
    1.0770   -1.1441   -0.3068 C   0  0  0  0  0  0  0  0  0  0  0  0
    1.6448   -0.4717    0.9380 C   0  0  0  0  0  0  0  0  0  0  0  0
    1.4363    1.0243    1.0671 C   0  0  0  0  0  0  0  0  0  0  0  0
    1.1218    1.5635    2.0980 O   0  0  0  0  0  0  0  0  0  0  0  0
    1.7129    1.7750   -0.0299 O   0  0  0  0  0  0  0  0  0  0  0  0
   -1.0131    0.2031   -0.2702 N   0  0  0  0  0  0  0  0  0  0  0  0
   -0.8373    1.1172   -1.2600 C   0  0  0  0  0  0  0  0  0  0  0  0
   -0.1650    0.8609   -2.2570 O   0  0  0  0  0  0  0  0  0  0  0  0
   -1.4576    2.4636   -1.0093 C   0  0  0  0  0  0  0  0  0  0  0  0
   -0.7605   -1.5880   -1.3048 H   0  0  0  0  0  0  0  0  0  0  0  0
   -1.0545   -3.6558    1.4763 H   0  0  0  0  0  0  0  0  0  0  0  0
    1.4019   -2.1831   -0.3325 H   0  0  0  0  0  0  0  0  0  0  0  0
    1.4408   -0.6814   -1.2233 H   0  0  0  0  0  0  0  0  0  0  0  0
    2.7252   -0.6305    0.9609 H   0  0  0  0  0  0  0  0  0  0  0  0
    1.2393   -0.9153    1.8461 H   0  0  0  0  0  0  0  0  0  0  0  0
    1.7681    1.2177   -0.8177 H   0  0  0  0  0  0  0  0  0  0  0  0
   -1.5824    0.4047    0.5374 H   0  0  0  0  0  0  0  0  0  0  0  0
   -1.7359    2.9048   -1.9609 H   0  0  0  0  0  0  0  0  0  0  0  0
   -0.7046    3.0948   -0.5387 H   0  0  0  0  0  0  0  0  0  0  0  0
   -2.3244    2.4081   -0.3555 H   0  0  0  0  0  0  0  0  0  0  0  0
  1 14  1  6  0  0  0
  1  5  1  0  0  0  0
  1 10  1  0  0  0  0
  1  2  1  0  0  0  0
  2  3  2  0  0  0  0
  4  2  1  0  0  0  0
  4 15  1  0  0  0  0
  5  6  1  0  0  0  0
  6 18  1  0  0  0  0
  6  7  1  0  0  0  0
  6 19  1  0  0  0  0
  7  8  2  0  0  0  0
  9  7  1  0  0  0  0
 10 21  1  0  0  0  0
 11 13  1  0  0  0  0
 11 10  1  0  0  0  0
 12 11  2  0  0  0  0
 13 23  1  0  0  0  0
 13 24  1  0  0  0  0
 16  5  1  0  0  0  0
 17  5  1  0  0  0  0
 20  9  1  0  0  0  0
 22 13  1  0  0  0  0
M  END
