omegapdb_1m5f_03.xyz
 OpenBabel11041815263D

 25 25  0  0  1  0  0  0  0  0999 V2000
   -1.0651   -3.6997   -0.7279 O   0  0  0  0  0  0  0  0  0  0  0  0
   -0.4143   -2.5338   -0.7218 C   0  0  0  0  0  0  0  0  0  0  0  0
    0.7644   -2.4634   -1.0122 O   0  0  0  0  0  0  0  0  0  0  0  0
   -1.2209   -1.3629   -0.3282 C   0  0  0  0  0  0  0  0  0  0  0  0
   -2.4630   -1.5581    0.1147 N   0  0  0  0  0  0  0  0  0  0  0  0
   -2.9279   -0.3167    0.4397 O   0  0  0  0  0  0  0  0  0  0  0  0
   -1.9689    0.6146    0.1939 C   0  0  0  0  0  0  0  0  0  0  0  0
   -0.8549   -0.0011   -0.3128 C   0  0  0  0  0  0  0  0  0  0  0  0
    0.4590    0.5638   -0.7116 C   0  0  0  0  0  0  0  0  0  0  0  0
    1.5034    0.3201    0.3956 C   0  0  2  0  0  0  0  0  0  0  0  0
    1.3533    1.3415    1.4170 N   0  0  0  0  0  0  0  0  0  0  0  0
    2.8877    0.2745   -0.2417 C   0  0  0  0  0  0  0  0  0  0  0  0
    3.6983    1.1620   -0.1232 O   0  0  0  0  0  0  0  0  0  0  0  0
    3.1336   -0.8159   -0.9887 O   0  0  0  0  0  0  0  0  0  0  0  0
   -2.2995    2.0218    0.5121 C   0  0  0  0  0  0  0  0  0  0  0  0
   -1.9800   -3.5266   -0.4467 H   0  0  0  0  0  0  0  0  0  0  0  0
    0.7735    0.1066   -1.6485 H   0  0  0  0  0  0  0  0  0  0  0  0
    0.3869    1.6391   -0.8743 H   0  0  0  0  0  0  0  0  0  0  0  0
    1.3081   -0.6563    0.8399 H   0  0  0  0  0  0  0  0  0  0  0  0
    1.9090    2.1406    1.1227 H   0  0  0  0  0  0  0  0  0  0  0  0
    1.7922    1.0262    2.2740 H   0  0  0  0  0  0  0  0  0  0  0  0
    2.3599   -1.4086   -0.9720 H   0  0  0  0  0  0  0  0  0  0  0  0
   -1.3762    2.5789    0.6458 H   0  0  0  0  0  0  0  0  0  0  0  0
   -2.8711    2.0724    1.4360 H   0  0  0  0  0  0  0  0  0  0  0  0
   -2.8874    2.4812   -0.2815 H   0  0  0  0  0  0  0  0  0  0  0  0
  1  2  1  0  0  0  0
  1 16  1  0  0  0  0
  2  4  1  0  0  0  0
  3  2  2  0  0  0  0
  4  8  1  0  0  0  0
  4  5  2  0  0  0  0
  5  6  1  0  0  0  0
  7  6  1  0  0  0  0
  7 15  1  0  0  0  0
  8  7  2  0  0  0  0
  9  8  1  0  0  0  0
  9 10  1  0  0  0  0
 10 19  1  1  0  0  0
 10 11  1  0  0  0  0
 11 21  1  0  0  0  0
 12 13  2  0  0  0  0
 12 10  1  0  0  0  0
 14 22  1  0  0  0  0
 14 12  1  0  0  0  0
 15 23  1  0  0  0  0
 15 24  1  0  0  0  0
 17  9  1  0  0  0  0
 18  9  1  0  0  0  0
 20 11  1  0  0  0  0
 25 15  1  0  0  0  0
M  END
