omegapdb_1xom_01.xyz
 OpenBabel11041815263D

 50 52  0  0  1  0  0  0  0  0999 V2000
    5.3353    3.2367   -0.7562 O   0  0  0  0  0  0  0  0  0  0  0  0
    5.3864    2.0420   -0.1144 C   0  0  0  0  0  0  0  0  0  0  0  0
    6.4273    1.5273    0.2228 O   0  0  0  0  0  0  0  0  0  0  0  0
    4.0091    1.4667    0.0776 C   0  0  1  0  0  0  0  0  0  0  0  0
    3.4498    1.0097   -1.2766 C   0  0  0  0  0  0  0  0  0  0  0  0
    2.0511    0.4297   -1.1070 C   0  0  0  0  0  0  0  0  0  0  0  0
    2.0208   -0.7374   -0.0963 C   0  0  2  0  0  0  0  0  0  0  0  0
    2.6296   -0.2700    1.2439 C   0  0  0  0  0  0  0  0  0  0  0  0
    4.0264    0.3127    1.0705 C   0  0  0  0  0  0  0  0  0  0  0  0
    2.8659   -1.8083   -0.6274 C   0  0  0  0  0  0  0  0  0  0  0  0
    3.5615   -2.6496   -1.0568 N   0  0  0  0  0  0  0  0  0  0  0  0
    0.6047   -1.2465    0.1001 C   0  0  0  0  0  0  0  0  0  0  0  0
    0.2259   -2.5543   -0.1906 C   0  0  0  0  0  0  0  0  0  0  0  0
   -1.0896   -2.9777    0.0092 C   0  0  0  0  0  0  0  0  0  0  0  0
   -2.0534   -2.1021    0.5073 C   0  0  0  0  0  0  0  0  0  0  0  0
   -3.3481   -2.4336    0.7561 O   0  0  0  0  0  0  0  0  0  0  0  0
   -3.7137   -3.7787    0.4875 C   0  0  0  0  0  0  0  0  0  0  0  0
   -1.6855   -0.7699    0.7850 C   0  0  0  0  0  0  0  0  0  0  0  0
   -0.3715   -0.3676    0.5829 C   0  0  0  0  0  0  0  0  0  0  0  0
   -2.5507    0.1438    1.3097 O   0  0  0  0  0  0  0  0  0  0  0  0
   -3.7851    0.3915    0.5912 C   0  0  0  0  0  0  0  0  0  0  0  0
   -4.1890    1.7971    0.9967 C   0  0  0  0  0  0  0  0  0  0  0  0
   -3.2226    2.7002    0.2111 C   0  0  0  0  0  0  0  0  0  0  0  0
   -2.7962    1.8719   -1.0285 C   0  0  0  0  0  0  0  0  0  0  0  0
   -3.5367    0.5306   -0.9017 C   0  0  0  0  0  0  0  0  0  0  0  0
    6.2589    3.5105   -0.8639 H   0  0  0  0  0  0  0  0  0  0  0  0
    3.3692    2.2723    0.4503 H   0  0  0  0  0  0  0  0  0  0  0  0
    3.4219    1.8496   -1.9700 H   0  0  0  0  0  0  0  0  0  0  0  0
    4.1161    0.2539   -1.7009 H   0  0  0  0  0  0  0  0  0  0  0  0
    1.3755    1.2043   -0.7374 H   0  0  0  0  0  0  0  0  0  0  0  0
    1.6561    0.0815   -2.0626 H   0  0  0  0  0  0  0  0  0  0  0  0
    2.6417   -1.1112    1.9381 H   0  0  0  0  0  0  0  0  0  0  0  0
    1.9582    0.4841    1.6609 H   0  0  0  0  0  0  0  0  0  0  0  0
    4.7160   -0.4535    0.7126 H   0  0  0  0  0  0  0  0  0  0  0  0
    4.4095    0.6520    2.0330 H   0  0  0  0  0  0  0  0  0  0  0  0
    0.9520   -3.2592   -0.5723 H   0  0  0  0  0  0  0  0  0  0  0  0
   -1.3470   -4.0011   -0.2165 H   0  0  0  0  0  0  0  0  0  0  0  0
   -4.7631   -3.8583    0.7498 H   0  0  0  0  0  0  0  0  0  0  0  0
   -3.1320   -4.4729    1.0952 H   0  0  0  0  0  0  0  0  0  0  0  0
   -3.5815   -4.0203   -0.5680 H   0  0  0  0  0  0  0  0  0  0  0  0
   -0.1424    0.6627    0.8235 H   0  0  0  0  0  0  0  0  0  0  0  0
   -4.5111   -0.3762    0.8472 H   0  0  0  0  0  0  0  0  0  0  0  0
   -5.2211    1.9636    0.6845 H   0  0  0  0  0  0  0  0  0  0  0  0
   -4.1318    1.9362    2.0744 H   0  0  0  0  0  0  0  0  0  0  0  0
   -3.6900    3.6430   -0.0661 H   0  0  0  0  0  0  0  0  0  0  0  0
   -2.3553    2.9360    0.8237 H   0  0  0  0  0  0  0  0  0  0  0  0
   -3.0377    2.3742   -1.9631 H   0  0  0  0  0  0  0  0  0  0  0  0
   -1.7200    1.7034   -1.0222 H   0  0  0  0  0  0  0  0  0  0  0  0
   -4.5075    0.5715   -1.3987 H   0  0  0  0  0  0  0  0  0  0  0  0
   -2.9859   -0.3099   -1.3225 H   0  0  0  0  0  0  0  0  0  0  0  0
  1  2  1  0  0  0  0
  2  4  1  0  0  0  0
  2  3  2  0  0  0  0
  4 27  1  1  0  0  0
  4  9  1  0  0  0  0
  5  6  1  0  0  0  0
  5  4  1  0  0  0  0
  6 30  1  0  0  0  0
  6  7  1  0  0  0  0
  7 10  1  6  0  0  0
  7 12  1  0  0  0  0
  7  8  1  0  0  0  0
  8 33  1  0  0  0  0
  8 32  1  0  0  0  0
  9  8  1  0  0  0  0
  9 35  1  0  0  0  0
 11 10  3  0  0  0  0
 12 19  2  0  0  0  0
 13 14  2  0  0  0  0
 13 12  1  0  0  0  0
 14 15  1  0  0  0  0
 15 16  1  0  0  0  0
 15 18  2  0  0  0  0
 17 38  1  0  0  0  0
 17 16  1  0  0  0  0
 17 39  1  0  0  0  0
 18 20  1  0  0  0  0
 19 18  1  0  0  0  0
 19 41  1  0  0  0  0
 21 42  1  0  0  0  0
 21 22  1  0  0  0  0
 21 20  1  0  0  0  0
 22 44  1  0  0  0  0
 23 46  1  0  0  0  0
 23 22  1  0  0  0  0
 24 48  1  0  0  0  0
 24 25  1  0  0  0  0
 24 23  1  0  0  0  0
 25 21  1  0  0  0  0
 26  1  1  0  0  0  0
 28  5  1  0  0  0  0
 29  5  1  0  0  0  0
 31  6  1  0  0  0  0
 34  9  1  0  0  0  0
 36 13  1  0  0  0  0
 37 14  1  0  0  0  0
 40 17  1  0  0  0  0
 43 22  1  0  0  0  0
 45 23  1  0  0  0  0
 47 24  1  0  0  0  0
 49 25  1  0  0  0  0
 50 25  1  0  0  0  0
M  END
