omegapdb_1v2k_13.xyz
 OpenBabel11041815263D

 61 65  0  0  0  0  0  0  0  0999 V2000
    8.8584    0.9614    1.8575 N   0  0  0  0  0  0  0  0  0  0  0  0
    8.3123    1.7499    0.9205 C   0  0  0  0  0  0  0  0  0  0  0  0
    7.1091    1.5028    0.2753 C   0  0  0  0  0  0  0  0  0  0  0  0
    6.3739    0.3452    0.5920 C   0  0  0  0  0  0  0  0  0  0  0  0
    6.9411   -0.4871    1.5749 C   0  0  0  0  0  0  0  0  0  0  0  0
    8.1509   -0.1360    2.1581 C   0  0  0  0  0  0  0  0  0  0  0  0
    5.1818    0.0523   -0.0119 N   0  0  0  0  0  0  0  0  0  0  0  0
    4.7700    0.7160   -1.2424 C   0  0  0  0  0  0  0  0  0  0  0  0
    4.0038   -0.2651   -2.1171 C   0  0  0  0  0  0  0  0  0  0  0  0
    2.7224   -0.7630   -1.4382 C   0  0  0  0  0  0  0  0  0  0  0  0
    2.8950   -0.7456    0.0943 C   0  0  0  0  0  0  0  0  0  0  0  0
    4.3379   -1.0121    0.4949 C   0  0  0  0  0  0  0  0  0  0  0  0
    1.5515    0.1363   -1.7977 C   0  0  0  0  0  0  0  0  0  0  0  0
    1.7288    1.2825   -2.2063 O   0  0  0  0  0  0  0  0  0  0  0  0
    0.2868   -0.3297   -1.5873 N   0  0  0  0  0  0  0  0  0  0  0  0
   -0.8009    0.6257   -1.8071 C   0  0  0  0  0  0  0  0  0  0  0  0
   -2.1200   -0.0285   -1.4319 C   0  0  0  0  0  0  0  0  0  0  0  0
   -2.0902   -0.6783   -0.1167 N   0  0  0  0  0  0  0  0  0  0  0  0
   -0.9181   -1.5463    0.1396 C   0  0  0  0  0  0  0  0  0  0  0  0
   -0.0840   -1.6513   -1.1273 C   0  0  0  0  0  0  0  0  0  0  0  0
   -2.4818    0.3124    1.1642 S   0  0  0  0  0  0  0  0  0  0  0  0
   -1.8215    1.6042    1.0672 O   0  0  0  0  0  0  0  0  0  0  0  0
   -2.3091   -0.5046    2.3488 O   0  0  0  0  0  0  0  0  0  0  0  0
   -4.2057    0.5799    0.8523 C   0  0  0  0  0  0  0  0  0  0  0  0
   -5.0660   -0.4941    0.9334 C   0  0  0  0  0  0  0  0  0  0  0  0
   -6.4438   -0.2973    0.7111 C   0  0  0  0  0  0  0  0  0  0  0  0
   -6.9214    1.0173    0.4039 C   0  0  0  0  0  0  0  0  0  0  0  0
   -6.0005    2.0891    0.3380 C   0  0  0  0  0  0  0  0  0  0  0  0
   -4.6568    1.8817    0.5591 C   0  0  0  0  0  0  0  0  0  0  0  0
   -8.3015    1.2158    0.1777 C   0  0  0  0  0  0  0  0  0  0  0  0
   -9.1663    0.1484    0.2558 C   0  0  0  0  0  0  0  0  0  0  0  0
   -8.7097   -1.1512    0.5598 C   0  0  0  0  0  0  0  0  0  0  0  0
   -7.3700   -1.3652    0.7830 C   0  0  0  0  0  0  0  0  0  0  0  0
  -10.8589    0.3875   -0.0213 Cl  0  0  0  0  0  0  0  0  0  0  0  0
    8.8672    2.6471    0.6727 H   0  0  0  0  0  0  0  0  0  0  0  0
    6.7415    2.2234   -0.4394 H   0  0  0  0  0  0  0  0  0  0  0  0
    6.4695   -1.4119    1.8710 H   0  0  0  0  0  0  0  0  0  0  0  0
    8.5809   -0.7874    2.9100 H   0  0  0  0  0  0  0  0  0  0  0  0
    5.6662    1.0369   -1.7719 H   0  0  0  0  0  0  0  0  0  0  0  0
    4.1587    1.6020   -1.0495 H   0  0  0  0  0  0  0  0  0  0  0  0
    4.6555   -1.1147   -2.3260 H   0  0  0  0  0  0  0  0  0  0  0  0
    3.7579    0.2153   -3.0618 H   0  0  0  0  0  0  0  0  0  0  0  0
    2.5324   -1.7849   -1.7688 H   0  0  0  0  0  0  0  0  0  0  0  0
    2.2440   -1.4772    0.5742 H   0  0  0  0  0  0  0  0  0  0  0  0
    2.6118    0.2364    0.4796 H   0  0  0  0  0  0  0  0  0  0  0  0
    4.4103   -1.0239    1.5828 H   0  0  0  0  0  0  0  0  0  0  0  0
    4.6564   -2.0009    0.1356 H   0  0  0  0  0  0  0  0  0  0  0  0
   -0.8174    0.9406   -2.8525 H   0  0  0  0  0  0  0  0  0  0  0  0
   -0.6252    1.5093   -1.1964 H   0  0  0  0  0  0  0  0  0  0  0  0
   -2.9100    0.7218   -1.4281 H   0  0  0  0  0  0  0  0  0  0  0  0
   -2.4086   -0.7797   -2.1674 H   0  0  0  0  0  0  0  0  0  0  0  0
   -0.2982   -1.1299    0.9341 H   0  0  0  0  0  0  0  0  0  0  0  0
   -1.2590   -2.5317    0.4573 H   0  0  0  0  0  0  0  0  0  0  0  0
    0.8061   -2.2319   -0.9107 H   0  0  0  0  0  0  0  0  0  0  0  0
   -0.6345   -2.1876   -1.9047 H   0  0  0  0  0  0  0  0  0  0  0  0
   -4.6871   -1.4797    1.1725 H   0  0  0  0  0  0  0  0  0  0  0  0
   -6.3667    3.0826    0.1119 H   0  0  0  0  0  0  0  0  0  0  0  0
   -3.9419    2.6914    0.5240 H   0  0  0  0  0  0  0  0  0  0  0  0
   -8.6756    2.2038   -0.0547 H   0  0  0  0  0  0  0  0  0  0  0  0
   -9.4204   -1.9632    0.6145 H   0  0  0  0  0  0  0  0  0  0  0  0
   -7.0112   -2.3589    1.0189 H   0  0  0  0  0  0  0  0  0  0  0  0
  1  6  1  0  0  0  0
  2  1  2  0  0  0  0
  3  4  2  0  0  0  0
  3  2  1  0  0  0  0
  4  5  1  0  0  0  0
  5 37  1  0  0  0  0
  5  6  2  0  0  0  0
  6 38  1  0  0  0  0
  7 12  1  0  0  0  0
  7  4  1  0  0  0  0
  8 40  1  0  0  0  0
  8  7  1  0  0  0  0
  9 10  1  0  0  0  0
  9  8  1  0  0  0  0
 10 11  1  0  0  0  0
 11 45  1  0  0  0  0
 11 12  1  0  0  0  0
 11 44  1  0  0  0  0
 12 46  1  0  0  0  0
 13 15  1  0  0  0  0
 13 10  1  0  0  0  0
 14 13  2  0  0  0  0
 15 20  1  0  0  0  0
 16 15  1  0  0  0  0
 16 17  1  0  0  0  0
 16 49  1  0  0  0  0
 17 50  1  0  0  0  0
 17 18  1  0  0  0  0
 18 19  1  0  0  0  0
 18 21  1  0  0  0  0
 19 53  1  0  0  0  0
 19 52  1  0  0  0  0
 20 54  1  0  0  0  0
 20 19  1  0  0  0  0
 21 23  2  0  0  0  0
 22 21  2  0  0  0  0
 24 25  1  0  0  0  0
 24 21  1  0  0  0  0
 25 56  1  0  0  0  0
 26 33  1  0  0  0  0
 26 25  2  0  0  0  0
 27 26  1  0  0  0  0
 28 27  2  0  0  0  0
 28 29  1  0  0  0  0
 29 24  2  0  0  0  0
 30 31  2  0  0  0  0
 30 27  1  0  0  0  0
 31 32  1  0  0  0  0
 32 60  1  0  0  0  0
 32 33  2  0  0  0  0
 33 61  1  0  0  0  0
 34 31  1  0  0  0  0
 35  2  1  0  0  0  0
 36  3  1  0  0  0  0
 39  8  1  0  0  0  0
 41  9  1  0  0  0  0
 42  9  1  0  0  0  0
 43 10  1  0  0  0  0
 47 12  1  0  0  0  0
 48 16  1  0  0  0  0
 51 17  1  0  0  0  0
 55 20  1  0  0  0  0
 57 28  1  0  0  0  0
 58 29  1  0  0  0  0
 59 30  1  0  0  0  0
M  END
