omegapdb_1m5f_16.xyz
 OpenBabel11041815263D

 25 25  0  0  1  0  0  0  0  0999 V2000
    0.0774   -2.7280   -0.7294 O   0  0  0  0  0  0  0  0  0  0  0  0
   -1.2098   -2.7095   -0.2964 C   0  0  0  0  0  0  0  0  0  0  0  0
   -1.8757   -3.7032   -0.1480 O   0  0  0  0  0  0  0  0  0  0  0  0
   -1.6546   -1.3215   -0.0421 C   0  0  0  0  0  0  0  0  0  0  0  0
   -2.8848   -1.1550    0.4454 N   0  0  0  0  0  0  0  0  0  0  0  0
   -3.0346    0.2010    0.5773 O   0  0  0  0  0  0  0  0  0  0  0  0
   -1.9113    0.8365    0.1737 C   0  0  0  0  0  0  0  0  0  0  0  0
   -0.9843   -0.0863   -0.2423 C   0  0  0  0  0  0  0  0  0  0  0  0
    0.3956    0.1903   -0.7271 C   0  0  0  0  0  0  0  0  0  0  0  0
    1.4366   -0.0076    0.4034 C   0  0  2  0  0  0  0  0  0  0  0  0
    1.2422    0.8228    1.5746 N   0  0  0  0  0  0  0  0  0  0  0  0
    2.7810    0.3271   -0.1906 C   0  0  0  0  0  0  0  0  0  0  0  0
    3.2964    1.4207   -0.1519 O   0  0  0  0  0  0  0  0  0  0  0  0
    3.3193   -0.7255   -0.8430 O   0  0  0  0  0  0  0  0  0  0  0  0
   -1.9261    2.3168    0.2457 C   0  0  0  0  0  0  0  0  0  0  0  0
    0.2864   -3.6646   -0.8701 H   0  0  0  0  0  0  0  0  0  0  0  0
    0.6408   -0.4607   -1.5640 H   0  0  0  0  0  0  0  0  0  0  0  0
    0.4608    1.2256   -1.0676 H   0  0  0  0  0  0  0  0  0  0  0  0
    1.4301   -1.0574    0.6890 H   0  0  0  0  0  0  0  0  0  0  0  0
    1.4891    1.7798    1.3498 H   0  0  0  0  0  0  0  0  0  0  0  0
    0.2707    0.8017    1.8590 H   0  0  0  0  0  0  0  0  0  0  0  0
    4.1415   -0.3957   -1.2374 H   0  0  0  0  0  0  0  0  0  0  0  0
   -2.7528    2.7217   -0.3357 H   0  0  0  0  0  0  0  0  0  0  0  0
   -2.0392    2.6555    1.2746 H   0  0  0  0  0  0  0  0  0  0  0  0
   -0.9946    2.7152   -0.1470 H   0  0  0  0  0  0  0  0  0  0  0  0
  1  2  1  0  0  0  0
  2  3  2  0  0  0  0
  2  4  1  0  0  0  0
  4  5  2  0  0  0  0
  5  6  1  0  0  0  0
  7 15  1  0  0  0  0
  7  6  1  0  0  0  0
  8  4  1  0  0  0  0
  8  7  2  0  0  0  0
  9  8  1  0  0  0  0
  9 10  1  0  0  0  0
 10 19  1  1  0  0  0
 10 11  1  0  0  0  0
 11 21  1  0  0  0  0
 12 13  2  0  0  0  0
 12 10  1  0  0  0  0
 14 12  1  0  0  0  0
 15 24  1  0  0  0  0
 16  1  1  0  0  0  0
 17  9  1  0  0  0  0
 18  9  1  0  0  0  0
 20 11  1  0  0  0  0
 22 14  1  0  0  0  0
 23 15  1  0  0  0  0
 25 15  1  0  0  0  0
M  END
