omegapdb_2byh_15.xyz
 OpenBabel11041815263D

 40 42  0  0  0  0  0  0  0  0999 V2000
    6.0464    0.1399    2.4474 O   0  0  0  0  0  0  0  0  0  0  0  0
    4.9330    0.6398    2.4018 C   0  0  0  0  0  0  0  0  0  0  0  0
    4.4795    1.6396    3.4357 C   0  0  0  0  0  0  0  0  0  0  0  0
    3.9802    0.2709    1.3110 C   0  0  0  0  0  0  0  0  0  0  0  0
    2.7093    0.8448    1.1984 C   0  0  0  0  0  0  0  0  0  0  0  0
    1.8571    0.4778    0.1641 C   0  0  0  0  0  0  0  0  0  0  0  0
    2.2575   -0.4966   -0.7529 C   0  0  0  0  0  0  0  0  0  0  0  0
    3.5292   -1.0668   -0.6514 C   0  0  0  0  0  0  0  0  0  0  0  0
    4.3859   -0.6788    0.3683 C   0  0  0  0  0  0  0  0  0  0  0  0
    1.4085   -0.8953   -1.8078 N   0  0  0  0  0  0  0  0  0  0  0  0
    0.0636   -1.1215   -1.7585 C   0  0  0  0  0  0  0  0  0  0  0  0
   -0.5883   -1.1787   -2.8065 O   0  0  0  0  0  0  0  0  0  0  0  0
   -0.5353   -1.3482   -0.4408 C   0  0  0  0  0  0  0  0  0  0  0  0
    0.0166   -2.0266    0.6652 C   0  0  0  0  0  0  0  0  0  0  0  0
   -0.8363   -2.0629    1.6970 N   0  0  0  0  0  0  0  0  0  0  0  0
   -1.9072   -1.3994    1.2482 N   0  0  0  0  0  0  0  0  0  0  0  0
   -1.8109   -0.9497   -0.0324 C   0  0  0  0  0  0  0  0  0  0  0  0
   -2.9029   -0.1659   -0.6072 C   0  0  0  0  0  0  0  0  0  0  0  0
   -3.3869    0.9240    0.1292 C   0  0  0  0  0  0  0  0  0  0  0  0
   -4.5104    1.6178   -0.2894 C   0  0  0  0  0  0  0  0  0  0  0  0
   -5.1073    2.9726    0.6195 Cl  0  0  0  0  0  0  0  0  0  0  0  0
   -5.1874    1.2424   -1.4542 C   0  0  0  0  0  0  0  0  0  0  0  0
   -6.2923    1.8874   -1.8988 O   0  0  0  0  0  0  0  0  0  0  0  0
   -4.6977    0.1735   -2.1953 C   0  0  0  0  0  0  0  0  0  0  0  0
   -3.5646   -0.5333   -1.7974 C   0  0  0  0  0  0  0  0  0  0  0  0
   -3.1913   -1.5899   -2.5485 O   0  0  0  0  0  0  0  0  0  0  0  0
    5.2751    1.7766    4.1606 H   0  0  0  0  0  0  0  0  0  0  0  0
    4.2465    2.5944    2.9649 H   0  0  0  0  0  0  0  0  0  0  0  0
    3.5785    1.2907    3.9388 H   0  0  0  0  0  0  0  0  0  0  0  0
    2.3821    1.5941    1.9048 H   0  0  0  0  0  0  0  0  0  0  0  0
    0.8862    0.9421    0.0611 H   0  0  0  0  0  0  0  0  0  0  0  0
    3.8295   -1.8222   -1.3659 H   0  0  0  0  0  0  0  0  0  0  0  0
    5.3720   -1.1104    0.4650 H   0  0  0  0  0  0  0  0  0  0  0  0
    1.7858   -0.9022   -2.7456 H   0  0  0  0  0  0  0  0  0  0  0  0
    0.9814   -2.4966    0.7530 H   0  0  0  0  0  0  0  0  0  0  0  0
   -2.7195   -1.3117    1.8395 H   0  0  0  0  0  0  0  0  0  0  0  0
   -2.8773    1.2348    1.0316 H   0  0  0  0  0  0  0  0  0  0  0  0
   -6.4784    2.6032   -1.2749 H   0  0  0  0  0  0  0  0  0  0  0  0
   -5.2051   -0.1187   -3.1033 H   0  0  0  0  0  0  0  0  0  0  0  0
   -2.2051   -1.5912   -2.6083 H   0  0  0  0  0  0  0  0  0  0  0  0
  2  1  2  0  0  0  0
  2  3  1  0  0  0  0
  3 29  1  0  0  0  0
  3 27  1  0  0  0  0
  4  2  1  0  0  0  0
  5  4  1  0  0  0  0
  5 30  1  0  0  0  0
  6  5  2  0  0  0  0
  7  8  2  0  0  0  0
  7  6  1  0  0  0  0
  8  9  1  0  0  0  0
  9 33  1  0  0  0  0
  9  4  2  0  0  0  0
 10 11  1  0  0  0  0
 10  7  1  0  0  0  0
 11 13  1  0  0  0  0
 12 11  2  0  0  0  0
 13 17  2  0  0  0  0
 13 14  1  0  0  0  0
 14 35  1  0  0  0  0
 14 15  2  0  0  0  0
 16 15  1  0  0  0  0
 16 36  1  0  0  0  0
 17 16  1  0  0  0  0
 18 17  1  0  0  0  0
 18 19  2  0  0  0  0
 19 37  1  0  0  0  0
 20 19  1  0  0  0  0
 20 21  1  0  0  0  0
 22 20  2  0  0  0  0
 23 22  1  0  0  0  0
 23 38  1  0  0  0  0
 24 25  2  0  0  0  0
 24 22  1  0  0  0  0
 25 18  1  0  0  0  0
 26 25  1  0  0  0  0
 28  3  1  0  0  0  0
 31  6  1  0  0  0  0
 32  8  1  0  0  0  0
 34 10  1  0  0  0  0
 39 24  1  0  0  0  0
 40 26  1  0  0  0  0
M  END
