omegapdb_1qxw_30.xyz
 OpenBabel11041815263D

 36 36  0  0  1  0  0  0  0  0999 V2000
    4.7302    0.6376    0.6721 C   0  0  0  0  0  0  0  0  0  0  0  0
    4.7492    1.1929   -0.7366 C   0  0  0  0  0  0  0  0  0  0  0  0
    3.8712    0.0308   -0.4124 C   0  0  0  0  0  0  0  0  0  0  0  0
    2.4468    0.2065   -0.4243 N   0  0  0  0  0  0  0  0  0  0  0  0
    1.7812   -0.5766    0.6019 C   0  0  0  0  0  0  0  0  0  0  0  0
    0.2935   -0.2534    0.6447 C   0  0  0  0  0  0  0  0  0  0  0  0
   -0.3990   -0.4554   -0.7116 C   0  0  1  0  0  0  0  0  0  0  0  0
   -0.3702   -1.8525   -1.1405 N   0  0  0  0  0  0  0  0  0  0  0  0
   -1.8287    0.0902   -0.7705 C   0  0  0  0  0  0  0  0  0  0  0  0
   -2.8589   -0.5998    0.1222 C   0  0  0  0  0  0  0  0  0  0  0  0
   -4.2955   -0.3293   -0.3219 C   0  0  0  0  0  0  0  0  0  0  0  0
   -4.6663    1.1480   -0.2766 C   0  0  0  0  0  0  0  0  0  0  0  0
   -0.2184   -1.1017    1.6519 O   0  0  0  0  0  0  0  0  0  0  0  0
    0.1028    1.1086    0.9914 O   0  0  0  0  0  0  0  0  0  0  0  0
    4.2203    1.2269    1.4205 H   0  0  0  0  0  0  0  0  0  0  0  0
    5.5976    0.0978    1.0201 H   0  0  0  0  0  0  0  0  0  0  0  0
    5.6248    1.0229   -1.3429 H   0  0  0  0  0  0  0  0  0  0  0  0
    4.2619    2.1434   -0.8990 H   0  0  0  0  0  0  0  0  0  0  0  0
    4.1837   -0.9346   -0.7879 H   0  0  0  0  0  0  0  0  0  0  0  0
    2.2206    1.1856   -0.2809 H   0  0  0  0  0  0  0  0  0  0  0  0
    2.1816   -0.4024    1.6117 H   0  0  0  0  0  0  0  0  0  0  0  0
    1.9140   -1.6363    0.3861 H   0  0  0  0  0  0  0  0  0  0  0  0
    0.1876    0.1153   -1.4299 H   0  0  0  0  0  0  0  0  0  0  0  0
    0.5422   -2.0685   -1.5219 H   0  0  0  0  0  0  0  0  0  0  0  0
   -0.4910   -2.4560   -0.3350 H   0  0  0  0  0  0  0  0  0  0  0  0
   -1.8078    1.1585   -0.5621 H   0  0  0  0  0  0  0  0  0  0  0  0
   -2.1473   -0.0392   -1.8072 H   0  0  0  0  0  0  0  0  0  0  0  0
   -2.6875   -1.6782    0.1157 H   0  0  0  0  0  0  0  0  0  0  0  0
   -2.7668   -0.2470    1.1564 H   0  0  0  0  0  0  0  0  0  0  0  0
   -4.4237   -0.7121   -1.3366 H   0  0  0  0  0  0  0  0  0  0  0  0
   -4.9796   -0.8941    0.3138 H   0  0  0  0  0  0  0  0  0  0  0  0
   -5.7139    1.2988   -0.5321 H   0  0  0  0  0  0  0  0  0  0  0  0
   -4.5033    1.5558    0.7217 H   0  0  0  0  0  0  0  0  0  0  0  0
   -4.0683    1.7308   -0.9746 H   0  0  0  0  0  0  0  0  0  0  0  0
   -1.1652   -0.9270    1.7080 H   0  0  0  0  0  0  0  0  0  0  0  0
    0.4820    1.2136    1.8735 H   0  0  0  0  0  0  0  0  0  0  0  0
  1 16  1  0  0  0  0
  1 15  1  0  0  0  0
  2  3  1  0  0  0  0
  2  1  1  0  0  0  0
  3  1  1  0  0  0  0
  4  3  1  0  0  0  0
  4 20  1  0  0  0  0
  4  5  1  0  0  0  0
  5  6  1  0  0  0  0
  5 21  1  0  0  0  0
  6 14  1  0  0  0  0
  6 13  1  0  0  0  0
  7 23  1  6  0  0  0
  7  6  1  0  0  0  0
  8  7  1  0  0  0  0
  8 25  1  0  0  0  0
  9  7  1  0  0  0  0
  9 26  1  0  0  0  0
  9 10  1  0  0  0  0
 10 29  1  0  0  0  0
 11 12  1  0  0  0  0
 11 10  1  0  0  0  0
 11 31  1  0  0  0  0
 12 33  1  0  0  0  0
 13 35  1  0  0  0  0
 14 36  1  0  0  0  0
 17  2  1  0  0  0  0
 18  2  1  0  0  0  0
 19  3  1  0  0  0  0
 22  5  1  0  0  0  0
 24  8  1  0  0  0  0
 27  9  1  0  0  0  0
 28 10  1  0  0  0  0
 30 11  1  0  0  0  0
 32 12  1  0  0  0  0
 34 12  1  0  0  0  0
M  END
