omegapdb_1z1r_12.xyz
 OpenBabel11041815263D

 66 68  0  0  1  0  0  0  0  0999 V2000
    0.7659   -0.7004   -0.5103 C   0  0  2  0  0  0  0  0  0  0  0  0
    0.4368   -1.5030   -1.7848 C   0  0  0  0  0  0  0  0  0  0  0  0
   -0.8059   -2.3208   -1.5879 C   0  0  0  0  0  0  0  0  0  0  0  0
   -0.9366   -3.1828   -0.4930 C   0  0  0  0  0  0  0  0  0  0  0  0
   -2.1542   -3.7826   -0.1888 C   0  0  0  0  0  0  0  0  0  0  0  0
   -3.2676   -3.5306   -0.9930 C   0  0  0  0  0  0  0  0  0  0  0  0
   -3.1281   -2.7615   -2.1460 C   0  0  0  0  0  0  0  0  0  0  0  0
   -1.9093   -2.1483   -2.4258 C   0  0  0  0  0  0  0  0  0  0  0  0
   -4.5093   -4.0213   -0.6727 O   0  0  0  0  0  0  0  0  0  0  0  0
   -5.0022   -3.5539    0.5933 C   0  0  0  0  0  0  0  0  0  0  0  0
   -5.5402   -2.1316    0.5279 C   0  0  0  0  0  0  0  0  0  0  0  0
   -4.5056   -1.0123    0.4350 C   0  0  0  0  0  0  0  0  0  0  0  0
   -3.7162   -0.8390    1.7117 C   0  0  0  0  0  0  0  0  0  0  0  0
   -3.9120   -1.5022    2.7201 O   0  0  0  0  0  0  0  0  0  0  0  0
   -2.7532    0.1472    1.7033 N   0  0  0  0  0  0  0  0  0  0  0  0
   -2.4302    1.0528    0.6233 C   0  0  2  0  0  0  0  0  0  0  0  0
   -1.3705    0.5456   -0.3590 C   0  0  0  0  0  0  0  0  0  0  0  0
   -1.3713    0.9463   -1.5197 O   0  0  0  0  0  0  0  0  0  0  0  0
   -0.4238   -0.2383    0.1940 N   0  0  0  0  0  0  0  0  0  0  0  0
   -1.9176    2.3694    1.2386 C   0  0  0  0  0  0  0  0  0  0  0  0
   -1.2543    3.2804    0.2220 C   0  0  0  0  0  0  0  0  0  0  0  0
   -0.0357    3.3415    0.1141 O   0  0  0  0  0  0  0  0  0  0  0  0
   -2.0974    4.0353   -0.5261 N   0  0  0  0  0  0  0  0  0  0  0  0
    1.6538    0.5027   -0.8071 C   0  0  2  0  0  0  0  0  0  0  0  0
    2.7553    0.0346   -1.5712 O   0  0  0  0  0  0  0  0  0  0  0  0
    2.1487    1.1650    0.4656 C   0  0  0  0  0  0  0  0  0  0  0  0
    2.7877    2.4293    0.0859 N   0  0  0  0  0  0  0  0  0  0  0  0
    3.9061    3.0178    1.1691 S   0  0  0  0  0  0  0  0  0  0  0  0
    3.5246    2.7285    2.5407 O   0  0  0  0  0  0  0  0  0  0  0  0
    4.1846    4.3754    0.7482 O   0  0  0  0  0  0  0  0  0  0  0  0
    5.2798    1.9714    0.7679 C   0  0  0  0  0  0  0  0  0  0  0  0
    5.9033    2.1315   -0.4691 C   0  0  0  0  0  0  0  0  0  0  0  0
    6.9709    1.3014   -0.7934 C   0  0  0  0  0  0  0  0  0  0  0  0
    7.4034    0.3288    0.1099 C   0  0  0  0  0  0  0  0  0  0  0  0
    6.7740    0.1878    1.3446 C   0  0  0  0  0  0  0  0  0  0  0  0
    5.7017    1.0117    1.6827 C   0  0  0  0  0  0  0  0  0  0  0  0
    1.2920   -1.3523    0.1904 H   0  0  0  0  0  0  0  0  0  0  0  0
    0.2898   -0.8124   -2.6131 H   0  0  0  0  0  0  0  0  0  0  0  0
    1.3037   -2.1198   -2.0206 H   0  0  0  0  0  0  0  0  0  0  0  0
   -0.0829   -3.3718    0.1481 H   0  0  0  0  0  0  0  0  0  0  0  0
   -2.2504   -4.4274    0.6740 H   0  0  0  0  0  0  0  0  0  0  0  0
   -3.9945   -2.6027   -2.7740 H   0  0  0  0  0  0  0  0  0  0  0  0
   -1.8250   -1.4865   -3.2782 H   0  0  0  0  0  0  0  0  0  0  0  0
   -4.2351   -3.6412    1.3618 H   0  0  0  0  0  0  0  0  0  0  0  0
   -5.8155   -4.2331    0.8405 H   0  0  0  0  0  0  0  0  0  0  0  0
   -6.2095   -2.0662   -0.3310 H   0  0  0  0  0  0  0  0  0  0  0  0
   -6.1398   -1.9698    1.4249 H   0  0  0  0  0  0  0  0  0  0  0  0
   -5.0240   -0.0687    0.2401 H   0  0  0  0  0  0  0  0  0  0  0  0
   -3.8188   -1.1554   -0.4001 H   0  0  0  0  0  0  0  0  0  0  0  0
   -2.3422    0.3135    2.6113 H   0  0  0  0  0  0  0  0  0  0  0  0
   -3.3151    1.2505    0.0199 H   0  0  0  0  0  0  0  0  0  0  0  0
   -0.6387   -0.6268    1.0977 H   0  0  0  0  0  0  0  0  0  0  0  0
   -2.7463    2.8737    1.7368 H   0  0  0  0  0  0  0  0  0  0  0  0
   -1.1543    2.1361    1.9805 H   0  0  0  0  0  0  0  0  0  0  0  0
   -1.6995    4.4945   -1.3282 H   0  0  0  0  0  0  0  0  0  0  0  0
   -3.0744    3.8089   -0.5633 H   0  0  0  0  0  0  0  0  0  0  0  0
    1.0592    1.2204   -1.3795 H   0  0  0  0  0  0  0  0  0  0  0  0
    3.3562    0.7873   -1.6494 H   0  0  0  0  0  0  0  0  0  0  0  0
    2.9016    0.5152    0.9159 H   0  0  0  0  0  0  0  0  0  0  0  0
    1.3437    1.3301    1.1792 H   0  0  0  0  0  0  0  0  0  0  0  0
    2.0872    3.1571   -0.0653 H   0  0  0  0  0  0  0  0  0  0  0  0
    5.5601    2.9004   -1.1475 H   0  0  0  0  0  0  0  0  0  0  0  0
    7.4678    1.4132   -1.7472 H   0  0  0  0  0  0  0  0  0  0  0  0
    8.2334   -0.3141   -0.1485 H   0  0  0  0  0  0  0  0  0  0  0  0
    7.1157   -0.5624    2.0441 H   0  0  0  0  0  0  0  0  0  0  0  0
    5.1993    0.9331    2.6362 H   0  0  0  0  0  0  0  0  0  0  0  0
  1 37  1  1  0  0  0
  1 19  1  0  0  0  0
  2  3  1  0  0  0  0
  2  1  1  0  0  0  0
  3  4  2  0  0  0  0
  4  5  1  0  0  0  0
  4 40  1  0  0  0  0
  5 41  1  0  0  0  0
  6  9  1  0  0  0  0
  6  5  2  0  0  0  0
  7  6  1  0  0  0  0
  8  7  2  0  0  0  0
  8  3  1  0  0  0  0
  9 10  1  0  0  0  0
 10 45  1  0  0  0  0
 10 44  1  0  0  0  0
 11 10  1  0  0  0  0
 11 47  1  0  0  0  0
 12 11  1  0  0  0  0
 12 13  1  0  0  0  0
 13 14  2  0  0  0  0
 15 13  1  0  0  0  0
 15 50  1  0  0  0  0
 16 51  1  6  0  0  0
 16 20  1  0  0  0  0
 16 15  1  0  0  0  0
 17 19  1  0  0  0  0
 17 16  1  0  0  0  0
 18 17  2  0  0  0  0
 19 52  1  0  0  0  0
 20 53  1  0  0  0  0
 20 54  1  0  0  0  0
 21 20  1  0  0  0  0
 22 21  2  0  0  0  0
 23 21  1  0  0  0  0
 24 57  1  6  0  0  0
 24  1  1  0  0  0  0
 24 26  1  0  0  0  0
 25 24  1  0  0  0  0
 26 59  1  0  0  0  0
 26 60  1  0  0  0  0
 27 26  1  0  0  0  0
 27 28  1  0  0  0  0
 28 29  2  0  0  0  0
 30 28  2  0  0  0  0
 31 28  1  0  0  0  0
 31 36  2  0  0  0  0
 32 31  1  0  0  0  0
 33 32  2  0  0  0  0
 33 34  1  0  0  0  0
 34 35  2  0  0  0  0
 35 36  1  0  0  0  0
 35 65  1  0  0  0  0
 36 66  1  0  0  0  0
 38  2  1  0  0  0  0
 39  2  1  0  0  0  0
 42  7  1  0  0  0  0
 43  8  1  0  0  0  0
 46 11  1  0  0  0  0
 48 12  1  0  0  0  0
 49 12  1  0  0  0  0
 55 23  1  0  0  0  0
 56 23  1  0  0  0  0
 58 25  1  0  0  0  0
 61 27  1  0  0  0  0
 62 32  1  0  0  0  0
 63 33  1  0  0  0  0
 64 34  1  0  0  0  0
M  END
