omegapdb_2byh_00.xyz
 OpenBabel11041815263D

 40 42  0  0  0  0  0  0  0  0999 V2000
    6.9353    0.9091    1.3733 O   0  0  0  0  0  0  0  0  0  0  0  0
    5.8694    1.4128    1.6946 C   0  0  0  0  0  0  0  0  0  0  0  0
    5.8181    2.6923    2.4921 C   0  0  0  0  0  0  0  0  0  0  0  0
    4.5790    0.7737    1.3033 C   0  0  0  0  0  0  0  0  0  0  0  0
    3.3364    1.3115    1.6451 C   0  0  0  0  0  0  0  0  0  0  0  0
    2.1482    0.6943    1.2649 C   0  0  0  0  0  0  0  0  0  0  0  0
    2.2020   -0.4916    0.5260 C   0  0  0  0  0  0  0  0  0  0  0  0
    3.4466   -1.0369    0.1805 C   0  0  0  0  0  0  0  0  0  0  0  0
    4.6199   -0.4124    0.5626 C   0  0  0  0  0  0  0  0  0  0  0  0
    1.0649   -1.1956    0.1022 N   0  0  0  0  0  0  0  0  0  0  0  0
   -0.2512   -0.8907    0.2831 C   0  0  0  0  0  0  0  0  0  0  0  0
   -0.6360    0.1469    0.8321 O   0  0  0  0  0  0  0  0  0  0  0  0
   -1.1712   -1.9112   -0.2289 C   0  0  0  0  0  0  0  0  0  0  0  0
   -0.9418   -3.2969   -0.3521 C   0  0  0  0  0  0  0  0  0  0  0  0
   -1.9957   -3.9294   -0.8861 N   0  0  0  0  0  0  0  0  0  0  0  0
   -2.8719   -2.9463   -1.1078 N   0  0  0  0  0  0  0  0  0  0  0  0
   -2.4593   -1.7046   -0.7346 C   0  0  0  0  0  0  0  0  0  0  0  0
   -3.3288   -0.5574   -0.9872 C   0  0  0  0  0  0  0  0  0  0  0  0
   -3.9063   -0.4409   -2.2591 C   0  0  0  0  0  0  0  0  0  0  0  0
   -4.8569    0.5327   -2.5177 C   0  0  0  0  0  0  0  0  0  0  0  0
   -5.5674    0.6825   -4.0955 Cl  0  0  0  0  0  0  0  0  0  0  0  0
   -5.2627    1.4187   -1.5144 C   0  0  0  0  0  0  0  0  0  0  0  0
   -6.1922    2.3816   -1.7202 O   0  0  0  0  0  0  0  0  0  0  0  0
   -4.6746    1.3186   -0.2592 C   0  0  0  0  0  0  0  0  0  0  0  0
   -3.7105    0.3526    0.0202 C   0  0  0  0  0  0  0  0  0  0  0  0
   -3.2258    0.2961    1.2791 O   0  0  0  0  0  0  0  0  0  0  0  0
    5.2841    3.4656    1.9408 H   0  0  0  0  0  0  0  0  0  0  0  0
    6.8332    3.0199    2.6908 H   0  0  0  0  0  0  0  0  0  0  0  0
    5.2919    2.5358    3.4332 H   0  0  0  0  0  0  0  0  0  0  0  0
    3.2773    2.2275    2.2155 H   0  0  0  0  0  0  0  0  0  0  0  0
    1.1953    1.1208    1.5261 H   0  0  0  0  0  0  0  0  0  0  0  0
    3.4856   -1.9568   -0.3910 H   0  0  0  0  0  0  0  0  0  0  0  0
    5.5833   -0.8257    0.2998 H   0  0  0  0  0  0  0  0  0  0  0  0
    1.2431   -2.0164   -0.4553 H   0  0  0  0  0  0  0  0  0  0  0  0
   -0.0846   -3.8709   -0.0402 H   0  0  0  0  0  0  0  0  0  0  0  0
   -3.7793   -3.1680   -1.4889 H   0  0  0  0  0  0  0  0  0  0  0  0
   -3.6008   -1.1071   -3.0550 H   0  0  0  0  0  0  0  0  0  0  0  0
   -6.4757    2.3157   -2.6431 H   0  0  0  0  0  0  0  0  0  0  0  0
   -4.9684    2.0064    0.5205 H   0  0  0  0  0  0  0  0  0  0  0  0
   -2.2525    0.1438    1.2161 H   0  0  0  0  0  0  0  0  0  0  0  0
  1  2  2  0  0  0  0
  2  3  1  0  0  0  0
  3 28  1  0  0  0  0
  3 29  1  0  0  0  0
  4  5  1  0  0  0  0
  4  2  1  0  0  0  0
  5 30  1  0  0  0  0
  6 31  1  0  0  0  0
  6  5  2  0  0  0  0
  7  6  1  0  0  0  0
  8  7  2  0  0  0  0
  8  9  1  0  0  0  0
  9  4  2  0  0  0  0
 10 11  1  0  0  0  0
 10  7  1  0  0  0  0
 11 12  2  0  0  0  0
 13 11  1  0  0  0  0
 14 13  1  0  0  0  0
 14 35  1  0  0  0  0
 15 14  2  0  0  0  0
 16 15  1  0  0  0  0
 16 17  1  0  0  0  0
 17 13  2  0  0  0  0
 18 17  1  0  0  0  0
 18 25  2  0  0  0  0
 19 18  1  0  0  0  0
 20 19  2  0  0  0  0
 20 22  1  0  0  0  0
 21 20  1  0  0  0  0
 22 24  2  0  0  0  0
 23 22  1  0  0  0  0
 24 25  1  0  0  0  0
 24 39  1  0  0  0  0
 25 26  1  0  0  0  0
 27  3  1  0  0  0  0
 32  8  1  0  0  0  0
 33  9  1  0  0  0  0
 34 10  1  0  0  0  0
 36 16  1  0  0  0  0
 37 19  1  0  0  0  0
 38 23  1  0  0  0  0
 40 26  1  0  0  0  0
M  END
