omegapdb_1xom_07.xyz
 OpenBabel11041815263D

 50 52  0  0  1  0  0  0  0  0999 V2000
    5.9846    2.1405   -0.5493 O   0  0  0  0  0  0  0  0  0  0  0  0
    5.9950    0.9150   -1.1292 C   0  0  0  0  0  0  0  0  0  0  0  0
    6.9780    0.4558   -1.6655 O   0  0  0  0  0  0  0  0  0  0  0  0
    4.6606    0.2322   -1.0091 C   0  0  1  0  0  0  0  0  0  0  0  0
    4.3032   -0.0247    0.4581 C   0  0  0  0  0  0  0  0  0  0  0  0
    2.9725   -0.7617    0.5573 C   0  0  0  0  0  0  0  0  0  0  0  0
    1.8336    0.0292   -0.1051 C   0  0  2  0  0  0  0  0  0  0  0  0
    2.2170    0.3172   -1.5742 C   0  0  0  0  0  0  0  0  0  0  0  0
    3.5531    1.0404   -1.6896 C   0  0  0  0  0  0  0  0  0  0  0  0
    1.6976    1.3107    0.5966 C   0  0  0  0  0  0  0  0  0  0  0  0
    1.5988    2.3436    1.1446 N   0  0  0  0  0  0  0  0  0  0  0  0
    0.4915   -0.6817   -0.0589 C   0  0  0  0  0  0  0  0  0  0  0  0
    0.3633   -2.0396    0.2201 C   0  0  0  0  0  0  0  0  0  0  0  0
   -0.8918   -2.6541    0.2010 C   0  0  0  0  0  0  0  0  0  0  0  0
   -2.0403   -1.9224   -0.0975 C   0  0  0  0  0  0  0  0  0  0  0  0
   -3.2960   -2.4385   -0.1547 O   0  0  0  0  0  0  0  0  0  0  0  0
   -3.4159   -3.8279    0.1085 C   0  0  0  0  0  0  0  0  0  0  0  0
   -1.9222   -0.5417   -0.3595 C   0  0  0  0  0  0  0  0  0  0  0  0
   -0.6670    0.0496   -0.3424 C   0  0  0  0  0  0  0  0  0  0  0  0
   -2.9893    0.2392   -0.6861 O   0  0  0  0  0  0  0  0  0  0  0  0
   -4.0838    0.3028    0.2645 C   0  0  0  0  0  0  0  0  0  0  0  0
   -3.5734    0.4666    1.6871 C   0  0  0  0  0  0  0  0  0  0  0  0
   -3.0241    1.9023    1.7224 C   0  0  0  0  0  0  0  0  0  0  0  0
   -3.7914    2.6663    0.6128 C   0  0  0  0  0  0  0  0  0  0  0  0
   -4.7519    1.6375   -0.0090 C   0  0  0  0  0  0  0  0  0  0  0  0
    6.8784    2.4938   -0.6740 H   0  0  0  0  0  0  0  0  0  0  0  0
    4.7729   -0.7252   -1.5211 H   0  0  0  0  0  0  0  0  0  0  0  0
    4.2479    0.9270    0.9892 H   0  0  0  0  0  0  0  0  0  0  0  0
    5.0850   -0.6196    0.9328 H   0  0  0  0  0  0  0  0  0  0  0  0
    3.0572   -1.7205    0.0413 H   0  0  0  0  0  0  0  0  0  0  0  0
    2.7200   -0.9655    1.5989 H   0  0  0  0  0  0  0  0  0  0  0  0
    2.2582   -0.6494   -2.0837 H   0  0  0  0  0  0  0  0  0  0  0  0
    1.4224    0.8979   -2.0443 H   0  0  0  0  0  0  0  0  0  0  0  0
    3.4853    2.0236   -1.2206 H   0  0  0  0  0  0  0  0  0  0  0  0
    3.7952    1.1962   -2.7421 H   0  0  0  0  0  0  0  0  0  0  0  0
    1.2254   -2.6431    0.4618 H   0  0  0  0  0  0  0  0  0  0  0  0
   -0.9583   -3.7096    0.4160 H   0  0  0  0  0  0  0  0  0  0  0  0
   -2.8479   -4.4155   -0.6141 H   0  0  0  0  0  0  0  0  0  0  0  0
   -3.0799   -4.0687    1.1181 H   0  0  0  0  0  0  0  0  0  0  0  0
   -4.4715   -4.0577    0.0126 H   0  0  0  0  0  0  0  0  0  0  0  0
   -0.6192    1.1133   -0.5421 H   0  0  0  0  0  0  0  0  0  0  0  0
   -4.7299   -0.5609    0.1255 H   0  0  0  0  0  0  0  0  0  0  0  0
   -2.8376   -0.2868    1.9669 H   0  0  0  0  0  0  0  0  0  0  0  0
   -4.4273    0.3583    2.3584 H   0  0  0  0  0  0  0  0  0  0  0  0
   -3.1596    2.3555    2.7023 H   0  0  0  0  0  0  0  0  0  0  0  0
   -1.9547    1.9017    1.5164 H   0  0  0  0  0  0  0  0  0  0  0  0
   -4.3271    3.5288    1.0040 H   0  0  0  0  0  0  0  0  0  0  0  0
   -3.0978    3.0305   -0.1417 H   0  0  0  0  0  0  0  0  0  0  0  0
   -5.7193    1.6493    0.4955 H   0  0  0  0  0  0  0  0  0  0  0  0
   -4.9197    1.7899   -1.0733 H   0  0  0  0  0  0  0  0  0  0  0  0
  2  4  1  0  0  0  0
  2  1  1  0  0  0  0
  3  2  2  0  0  0  0
  4 27  1  6  0  0  0
  4  5  1  0  0  0  0
  5  6  1  0  0  0  0
  5 29  1  0  0  0  0
  5 28  1  0  0  0  0
  6 31  1  0  0  0  0
  7 12  1  1  0  0  0
  7  6  1  0  0  0  0
  7 10  1  0  0  0  0
  8  7  1  0  0  0  0
  9  8  1  0  0  0  0
  9 34  1  0  0  0  0
  9  4  1  0  0  0  0
 10 11  3  0  0  0  0
 12 13  2  0  0  0  0
 13 36  1  0  0  0  0
 14 13  1  0  0  0  0
 14 37  1  0  0  0  0
 15 14  2  0  0  0  0
 16 15  1  0  0  0  0
 16 17  1  0  0  0  0
 17 39  1  0  0  0  0
 18 19  2  0  0  0  0
 18 15  1  0  0  0  0
 19 12  1  0  0  0  0
 20 18  1  0  0  0  0
 20 21  1  0  0  0  0
 21 22  1  0  0  0  0
 22 23  1  0  0  0  0
 22 43  1  0  0  0  0
 22 44  1  0  0  0  0
 23 45  1  0  0  0  0
 24 47  1  0  0  0  0
 24 23  1  0  0  0  0
 25 21  1  0  0  0  0
 25 49  1  0  0  0  0
 25 24  1  0  0  0  0
 26  1  1  0  0  0  0
 30  6  1  0  0  0  0
 32  8  1  0  0  0  0
 33  8  1  0  0  0  0
 35  9  1  0  0  0  0
 38 17  1  0  0  0  0
 40 17  1  0  0  0  0
 41 19  1  0  0  0  0
 42 21  1  0  0  0  0
 46 23  1  0  0  0  0
 48 24  1  0  0  0  0
 50 25  1  0  0  0  0
M  END
