omegapdb_1gs5_22.xyz
 OpenBabel11041815263D

 24 23  0  0  1  0  0  0  0  0999 V2000
   -0.3704   -0.7130   -0.5573 C   0  0  2  0  0  0  0  0  0  0  0  0
   -0.8812   -1.7073    0.4900 C   0  0  0  0  0  0  0  0  0  0  0  0
   -0.7238   -2.8982    0.3498 O   0  0  0  0  0  0  0  0  0  0  0  0
   -1.4391   -1.1824    1.5838 O   0  0  0  0  0  0  0  0  0  0  0  0
    0.8793    0.0180   -0.0588 C   0  0  0  0  0  0  0  0  0  0  0  0
    1.9472   -0.9612    0.3971 C   0  0  0  0  0  0  0  0  0  0  0  0
    3.2313   -0.2613    0.7442 C   0  0  0  0  0  0  0  0  0  0  0  0
    3.4821    0.9033    0.5339 O   0  0  0  0  0  0  0  0  0  0  0  0
    4.1031   -1.1058    1.3386 O   0  0  0  0  0  0  0  0  0  0  0  0
   -1.3873    0.2187   -1.0435 N   0  0  0  0  0  0  0  0  0  0  0  0
   -1.9719    1.1929   -0.3127 C   0  0  0  0  0  0  0  0  0  0  0  0
   -1.7725    1.3253    0.9001 O   0  0  0  0  0  0  0  0  0  0  0  0
   -2.9262    2.0897   -1.0541 C   0  0  0  0  0  0  0  0  0  0  0  0
   -0.0931   -1.3262   -1.4119 H   0  0  0  0  0  0  0  0  0  0  0  0
   -1.5019   -0.1985    1.4736 H   0  0  0  0  0  0  0  0  0  0  0  0
    1.2659    0.6309   -0.8722 H   0  0  0  0  0  0  0  0  0  0  0  0
    0.6234    0.6941    0.7541 H   0  0  0  0  0  0  0  0  0  0  0  0
    2.1746   -1.6926   -0.3821 H   0  0  0  0  0  0  0  0  0  0  0  0
    1.6318   -1.5440    1.2627 H   0  0  0  0  0  0  0  0  0  0  0  0
    4.8981   -0.5791    1.5110 H   0  0  0  0  0  0  0  0  0  0  0  0
   -1.6368    0.1570   -2.0150 H   0  0  0  0  0  0  0  0  0  0  0  0
   -3.9406    1.7626   -0.8291 H   0  0  0  0  0  0  0  0  0  0  0  0
   -2.8133    3.0995   -0.6721 H   0  0  0  0  0  0  0  0  0  0  0  0
   -2.7790    2.0776   -2.1301 H   0  0  0  0  0  0  0  0  0  0  0  0
  1 14  1  6  0  0  0
  1  5  1  0  0  0  0
  1  2  1  0  0  0  0
  2  4  1  0  0  0  0
  3  2  2  0  0  0  0
  5  6  1  0  0  0  0
  5 17  1  0  0  0  0
  6  7  1  0  0  0  0
  6 19  1  0  0  0  0
  7  9  1  0  0  0  0
  8  7  2  0  0  0  0
  9 20  1  0  0  0  0
 10  1  1  0  0  0  0
 10 11  1  0  0  0  0
 11 12  2  0  0  0  0
 13 22  1  0  0  0  0
 13 23  1  0  0  0  0
 13 11  1  0  0  0  0
 15  4  1  0  0  0  0
 16  5  1  0  0  0  0
 18  6  1  0  0  0  0
 21 10  1  0  0  0  0
 24 13  1  0  0  0  0
M  END
