omegapdb_2byh_08.xyz
 OpenBabel11041815263D

 40 42  0  0  0  0  0  0  0  0999 V2000
    3.8500    3.8842    1.3587 O   0  0  0  0  0  0  0  0  0  0  0  0
    4.0267    2.7165    1.6752 C   0  0  0  0  0  0  0  0  0  0  0  0
    5.1259    2.3294    2.6348 C   0  0  0  0  0  0  0  0  0  0  0  0
    3.1613    1.6364    1.1239 C   0  0  0  0  0  0  0  0  0  0  0  0
    2.1301    1.9891    0.2460 C   0  0  0  0  0  0  0  0  0  0  0  0
    1.3013    1.0168   -0.2835 C   0  0  0  0  0  0  0  0  0  0  0  0
    1.4854   -0.3351    0.0456 C   0  0  0  0  0  0  0  0  0  0  0  0
    2.5185   -0.7001    0.9150 C   0  0  0  0  0  0  0  0  0  0  0  0
    3.3404    0.2886    1.4473 C   0  0  0  0  0  0  0  0  0  0  0  0
    0.5941   -1.2545   -0.5147 N   0  0  0  0  0  0  0  0  0  0  0  0
    0.2808   -2.5134   -0.0465 C   0  0  0  0  0  0  0  0  0  0  0  0
    0.9946   -3.1676    0.7001 O   0  0  0  0  0  0  0  0  0  0  0  0
   -1.0123   -3.0122   -0.5566 C   0  0  0  0  0  0  0  0  0  0  0  0
   -1.3064   -4.3481   -0.8731 C   0  0  0  0  0  0  0  0  0  0  0  0
   -2.5504   -4.4813   -1.3596 N   0  0  0  0  0  0  0  0  0  0  0  0
   -3.0442   -3.2403   -1.3313 N   0  0  0  0  0  0  0  0  0  0  0  0
   -2.1810   -2.3018   -0.8592 C   0  0  0  0  0  0  0  0  0  0  0  0
   -2.5351   -0.8974   -0.6781 C   0  0  0  0  0  0  0  0  0  0  0  0
   -2.0456   -0.1859    0.4259 C   0  0  0  0  0  0  0  0  0  0  0  0
   -2.2877    1.1702    0.5866 C   0  0  0  0  0  0  0  0  0  0  0  0
   -1.6400    2.0118    1.9415 Cl  0  0  0  0  0  0  0  0  0  0  0  0
   -3.0648    1.8581   -0.3527 C   0  0  0  0  0  0  0  0  0  0  0  0
   -3.2788    3.1838   -0.1602 O   0  0  0  0  0  0  0  0  0  0  0  0
   -3.5922    1.1513   -1.4317 C   0  0  0  0  0  0  0  0  0  0  0  0
   -3.3363   -0.2066   -1.5968 C   0  0  0  0  0  0  0  0  0  0  0  0
   -3.8508   -0.9184   -2.6496 O   0  0  0  0  0  0  0  0  0  0  0  0
    5.6514    3.2274    2.9424 H   0  0  0  0  0  0  0  0  0  0  0  0
    5.8236    1.6408    2.1595 H   0  0  0  0  0  0  0  0  0  0  0  0
    4.7123    1.8276    3.5089 H   0  0  0  0  0  0  0  0  0  0  0  0
    1.9923    3.0332    0.0026 H   0  0  0  0  0  0  0  0  0  0  0  0
    0.4949    1.2949   -0.9525 H   0  0  0  0  0  0  0  0  0  0  0  0
    2.6612   -1.7389    1.1620 H   0  0  0  0  0  0  0  0  0  0  0  0
    4.1325   -0.0096    2.1195 H   0  0  0  0  0  0  0  0  0  0  0  0
   -0.0930   -0.8518   -1.1335 H   0  0  0  0  0  0  0  0  0  0  0  0
   -0.6617   -5.2047   -0.7826 H   0  0  0  0  0  0  0  0  0  0  0  0
   -3.9738   -3.0664   -1.6779 H   0  0  0  0  0  0  0  0  0  0  0  0
   -1.4623   -0.7010    1.1762 H   0  0  0  0  0  0  0  0  0  0  0  0
   -3.8268    3.5154   -0.8801 H   0  0  0  0  0  0  0  0  0  0  0  0
   -4.2114    1.6712   -2.1551 H   0  0  0  0  0  0  0  0  0  0  0  0
   -4.3228   -0.3116   -3.2306 H   0  0  0  0  0  0  0  0  0  0  0  0
  1  2  2  0  0  0  0
  2  3  1  0  0  0  0
  3 27  1  0  0  0  0
  3 29  1  0  0  0  0
  4  9  1  0  0  0  0
  4  2  1  0  0  0  0
  5  4  2  0  0  0  0
  6  7  2  0  0  0  0
  6  5  1  0  0  0  0
  7  8  1  0  0  0  0
  8 32  1  0  0  0  0
  8  9  2  0  0  0  0
  9 33  1  0  0  0  0
 10 11  1  0  0  0  0
 10  7  1  0  0  0  0
 11 12  2  0  0  0  0
 13 11  1  0  0  0  0
 14 35  1  0  0  0  0
 14 13  1  0  0  0  0
 15 16  1  0  0  0  0
 15 14  2  0  0  0  0
 16 17  1  0  0  0  0
 17 18  1  0  0  0  0
 17 13  2  0  0  0  0
 18 19  2  0  0  0  0
 19 20  1  0  0  0  0
 19 37  1  0  0  0  0
 20 21  1  0  0  0  0
 22 23  1  0  0  0  0
 22 20  2  0  0  0  0
 24 22  1  0  0  0  0
 25 24  2  0  0  0  0
 25 18  1  0  0  0  0
 26 25  1  0  0  0  0
 28  3  1  0  0  0  0
 30  5  1  0  0  0  0
 31  6  1  0  0  0  0
 34 10  1  0  0  0  0
 36 16  1  0  0  0  0
 38 23  1  0  0  0  0
 39 24  1  0  0  0  0
 40 26  1  0  0  0  0
M  END
