omegapdb_1qxw_17.xyz
 OpenBabel11041815263D

 36 36  0  0  1  0  0  0  0  0999 V2000
    4.3097    0.5564    0.8347 C   0  0  0  0  0  0  0  0  0  0  0  0
    4.7839    0.7769   -0.5862 C   0  0  0  0  0  0  0  0  0  0  0  0
    3.3650    1.0686   -0.2261 C   0  0  0  0  0  0  0  0  0  0  0  0
    2.3259    0.2354   -0.7607 N   0  0  0  0  0  0  0  0  0  0  0  0
    1.2216    0.0270    0.1680 C   0  0  0  0  0  0  0  0  0  0  0  0
    0.1823   -0.8130   -0.5719 C   0  0  0  0  0  0  0  0  0  0  0  0
   -1.0863   -1.1153    0.2418 C   0  0  1  0  0  0  0  0  0  0  0  0
   -0.7570   -2.2012    1.1809 N   0  0  0  0  0  0  0  0  0  0  0  0
   -1.7132    0.0865    0.9463 C   0  0  0  0  0  0  0  0  0  0  0  0
   -2.1980    1.2350    0.0621 C   0  0  0  0  0  0  0  0  0  0  0  0
   -3.2140    0.8208   -1.0007 C   0  0  0  0  0  0  0  0  0  0  0  0
   -4.4435    0.1262   -0.4267 C   0  0  0  0  0  0  0  0  0  0  0  0
   -0.2042   -0.1412   -1.7350 O   0  0  0  0  0  0  0  0  0  0  0  0
    0.7936   -2.0405   -0.9340 O   0  0  0  0  0  0  0  0  0  0  0  0
    4.1749   -0.4685    1.1485 H   0  0  0  0  0  0  0  0  0  0  0  0
    4.6563    1.2345    1.5996 H   0  0  0  0  0  0  0  0  0  0  0  0
    5.4447    1.6061   -0.7832 H   0  0  0  0  0  0  0  0  0  0  0  0
    4.9648   -0.1023   -1.1871 H   0  0  0  0  0  0  0  0  0  0  0  0
    3.0828    2.1108   -0.1588 H   0  0  0  0  0  0  0  0  0  0  0  0
    2.6968   -0.6771   -1.0082 H   0  0  0  0  0  0  0  0  0  0  0  0
    0.8072    1.0016    0.4274 H   0  0  0  0  0  0  0  0  0  0  0  0
    1.5276   -0.4785    1.0937 H   0  0  0  0  0  0  0  0  0  0  0  0
   -1.7845   -1.5302   -0.4875 H   0  0  0  0  0  0  0  0  0  0  0  0
   -1.5966   -2.7069    1.4324 H   0  0  0  0  0  0  0  0  0  0  0  0
   -0.3926   -1.8112    2.0433 H   0  0  0  0  0  0  0  0  0  0  0  0
   -0.9970    0.4687    1.6801 H   0  0  0  0  0  0  0  0  0  0  0  0
   -2.5553   -0.2941    1.5297 H   0  0  0  0  0  0  0  0  0  0  0  0
   -1.3489    1.7068   -0.4297 H   0  0  0  0  0  0  0  0  0  0  0  0
   -2.6529    1.9868    0.7132 H   0  0  0  0  0  0  0  0  0  0  0  0
   -2.7254    0.1805   -1.7343 H   0  0  0  0  0  0  0  0  0  0  0  0
   -3.5288    1.7163   -1.5392 H   0  0  0  0  0  0  0  0  0  0  0  0
   -4.9126    0.7358    0.3470 H   0  0  0  0  0  0  0  0  0  0  0  0
   -5.1864   -0.0586   -1.2010 H   0  0  0  0  0  0  0  0  0  0  0  0
   -4.1931   -0.8363    0.0187 H   0  0  0  0  0  0  0  0  0  0  0  0
    0.6238    0.2359   -2.0753 H   0  0  0  0  0  0  0  0  0  0  0  0
    0.5292   -2.6422   -0.2144 H   0  0  0  0  0  0  0  0  0  0  0  0
  1 15  1  0  0  0  0
  1 16  1  0  0  0  0
  2  3  1  0  0  0  0
  2  1  1  0  0  0  0
  3 19  1  0  0  0  0
  3  1  1  0  0  0  0
  4  3  1  0  0  0  0
  4  5  1  0  0  0  0
  5 21  1  0  0  0  0
  5 22  1  0  0  0  0
  6  5  1  0  0  0  0
  6  7  1  0  0  0  0
  7 23  1  6  0  0  0
  7  9  1  0  0  0  0
  7  8  1  0  0  0  0
  8 24  1  0  0  0  0
  8 25  1  0  0  0  0
  9 27  1  0  0  0  0
  9 26  1  0  0  0  0
 10 29  1  0  0  0  0
 10  9  1  0  0  0  0
 11 12  1  0  0  0  0
 11 10  1  0  0  0  0
 12 34  1  0  0  0  0
 12 32  1  0  0  0  0
 13  6  1  0  0  0  0
 14  6  1  0  0  0  0
 14 36  1  0  0  0  0
 17  2  1  0  0  0  0
 18  2  1  0  0  0  0
 20  4  1  0  0  0  0
 28 10  1  0  0  0  0
 30 11  1  0  0  0  0
 31 11  1  0  0  0  0
 33 12  1  0  0  0  0
 35 13  1  0  0  0  0
M  END
