omegapdb_1v2k_05.xyz
 OpenBabel11041815263D

 61 65  0  0  0  0  0  0  0  0999 V2000
    8.5905    2.1803    0.5380 N   0  0  0  0  0  0  0  0  0  0  0  0
    7.7001    1.7903    1.4610 C   0  0  0  0  0  0  0  0  0  0  0  0
    6.4737    1.2026    1.1847 C   0  0  0  0  0  0  0  0  0  0  0  0
    6.0910    0.9860   -0.1520 C   0  0  0  0  0  0  0  0  0  0  0  0
    7.0214    1.3921   -1.1265 C   0  0  0  0  0  0  0  0  0  0  0  0
    8.2224    1.9655   -0.7325 C   0  0  0  0  0  0  0  0  0  0  0  0
    4.8929    0.4153   -0.4851 N   0  0  0  0  0  0  0  0  0  0  0  0
    4.6305   -0.0436   -1.8382 C   0  0  0  0  0  0  0  0  0  0  0  0
    3.6203   -1.1795   -1.7986 C   0  0  0  0  0  0  0  0  0  0  0  0
    2.2725   -0.7258   -1.2304 C   0  0  0  0  0  0  0  0  0  0  0  0
    2.4847    0.4232   -0.2212 C   0  0  0  0  0  0  0  0  0  0  0  0
    3.8233    0.2820    0.4893 C   0  0  0  0  0  0  0  0  0  0  0  0
    1.5815   -1.8856   -0.5243 C   0  0  0  0  0  0  0  0  0  0  0  0
    2.2200   -2.8312   -0.0699 O   0  0  0  0  0  0  0  0  0  0  0  0
    0.2205   -1.8071   -0.3805 N   0  0  0  0  0  0  0  0  0  0  0  0
   -0.6308   -0.6962   -0.7542 C   0  0  0  0  0  0  0  0  0  0  0  0
   -1.3431   -0.1437    0.4726 C   0  0  0  0  0  0  0  0  0  0  0  0
   -2.0824   -1.2354    1.1110 N   0  0  0  0  0  0  0  0  0  0  0  0
   -1.1766   -2.3094    1.5541 C   0  0  0  0  0  0  0  0  0  0  0  0
   -0.4825   -2.8660    0.3252 C   0  0  0  0  0  0  0  0  0  0  0  0
   -3.1065   -0.7003    2.3310 S   0  0  0  0  0  0  0  0  0  0  0  0
   -2.4473    0.2889    3.1675 O   0  0  0  0  0  0  0  0  0  0  0  0
   -3.6842   -1.8908    2.9198 O   0  0  0  0  0  0  0  0  0  0  0  0
   -4.3222    0.1402    1.3549 C   0  0  0  0  0  0  0  0  0  0  0  0
   -5.1253   -0.6052    0.5183 C   0  0  0  0  0  0  0  0  0  0  0  0
   -6.1069    0.0431   -0.2582 C   0  0  0  0  0  0  0  0  0  0  0  0
   -6.2492    1.4648   -0.1604 C   0  0  0  0  0  0  0  0  0  0  0  0
   -5.4059    2.1850    0.7180 C   0  0  0  0  0  0  0  0  0  0  0  0
   -4.4498    1.5382    1.4696 C   0  0  0  0  0  0  0  0  0  0  0  0
   -7.2311    2.1160   -0.9396 C   0  0  0  0  0  0  0  0  0  0  0  0
   -8.0351    1.3797   -1.7791 C   0  0  0  0  0  0  0  0  0  0  0  0
   -7.9070   -0.0212   -1.8834 C   0  0  0  0  0  0  0  0  0  0  0  0
   -6.9574   -0.6739   -1.1333 C   0  0  0  0  0  0  0  0  0  0  0  0
   -9.2392    2.1746   -2.7364 Cl  0  0  0  0  0  0  0  0  0  0  0  0
    7.9871    1.9476    2.4941 H   0  0  0  0  0  0  0  0  0  0  0  0
    5.8470    0.8922    2.0070 H   0  0  0  0  0  0  0  0  0  0  0  0
    6.8117    1.2924   -2.1806 H   0  0  0  0  0  0  0  0  0  0  0  0
    8.9292    2.2797   -1.4915 H   0  0  0  0  0  0  0  0  0  0  0  0
    5.5634   -0.4133   -2.2636 H   0  0  0  0  0  0  0  0  0  0  0  0
    4.2800    0.7723   -2.4851 H   0  0  0  0  0  0  0  0  0  0  0  0
    4.0102   -1.9773   -1.1685 H   0  0  0  0  0  0  0  0  0  0  0  0
    3.4894   -1.5899   -2.7997 H   0  0  0  0  0  0  0  0  0  0  0  0
    1.6465   -0.3693   -2.0473 H   0  0  0  0  0  0  0  0  0  0  0  0
    2.4739    1.3823   -0.7425 H   0  0  0  0  0  0  0  0  0  0  0  0
    1.6832    0.4466    0.5183 H   0  0  0  0  0  0  0  0  0  0  0  0
    3.9239    1.0812    1.2229 H   0  0  0  0  0  0  0  0  0  0  0  0
    3.8680   -0.6736    1.0247 H   0  0  0  0  0  0  0  0  0  0  0  0
   -0.0494    0.0949   -1.2157 H   0  0  0  0  0  0  0  0  0  0  0  0
   -1.3806   -1.0393   -1.4734 H   0  0  0  0  0  0  0  0  0  0  0  0
   -2.0495    0.6294    0.1671 H   0  0  0  0  0  0  0  0  0  0  0  0
   -0.6197    0.2975    1.1673 H   0  0  0  0  0  0  0  0  0  0  0  0
   -0.4302   -1.9300    2.2616 H   0  0  0  0  0  0  0  0  0  0  0  0
   -1.7716   -3.0781    2.0406 H   0  0  0  0  0  0  0  0  0  0  0  0
    0.2484   -3.6204    0.6008 H   0  0  0  0  0  0  0  0  0  0  0  0
   -1.2290   -3.3042   -0.3420 H   0  0  0  0  0  0  0  0  0  0  0  0
   -5.0065   -1.6799    0.4636 H   0  0  0  0  0  0  0  0  0  0  0  0
   -5.5219    3.2588    0.7940 H   0  0  0  0  0  0  0  0  0  0  0  0
   -3.8034    2.0719    2.1517 H   0  0  0  0  0  0  0  0  0  0  0  0
   -7.3501    3.1892   -0.8745 H   0  0  0  0  0  0  0  0  0  0  0  0
   -8.5591   -0.5645   -2.5520 H   0  0  0  0  0  0  0  0  0  0  0  0
   -6.8539   -1.7491   -1.2052 H   0  0  0  0  0  0  0  0  0  0  0  0
  1  2  2  0  0  0  0
  2 35  1  0  0  0  0
  3  2  1  0  0  0  0
  3 36  1  0  0  0  0
  4  3  2  0  0  0  0
  5  6  2  0  0  0  0
  5  4  1  0  0  0  0
  6  1  1  0  0  0  0
  7  4  1  0  0  0  0
  7 12  1  0  0  0  0
  8  9  1  0  0  0  0
  8  7  1  0  0  0  0
  9 10  1  0  0  0  0
  9 41  1  0  0  0  0
 10 13  1  0  0  0  0
 10 11  1  0  0  0  0
 11 12  1  0  0  0  0
 11 45  1  0  0  0  0
 12 47  1  0  0  0  0
 12 46  1  0  0  0  0
 13 15  1  0  0  0  0
 13 14  2  0  0  0  0
 15 20  1  0  0  0  0
 16 15  1  0  0  0  0
 16 17  1  0  0  0  0
 17 18  1  0  0  0  0
 17 51  1  0  0  0  0
 18 19  1  0  0  0  0
 18 21  1  0  0  0  0
 19 53  1  0  0  0  0
 19 52  1  0  0  0  0
 20 54  1  0  0  0  0
 20 19  1  0  0  0  0
 21 23  2  0  0  0  0
 21 22  2  0  0  0  0
 24 29  1  0  0  0  0
 24 21  1  0  0  0  0
 25 24  2  0  0  0  0
 26 27  1  0  0  0  0
 26 25  1  0  0  0  0
 27 28  1  0  0  0  0
 28 57  1  0  0  0  0
 28 29  2  0  0  0  0
 29 58  1  0  0  0  0
 30 59  1  0  0  0  0
 30 27  2  0  0  0  0
 31 30  1  0  0  0  0
 32 31  2  0  0  0  0
 32 33  1  0  0  0  0
 33 26  2  0  0  0  0
 34 31  1  0  0  0  0
 37  5  1  0  0  0  0
 38  6  1  0  0  0  0
 39  8  1  0  0  0  0
 40  8  1  0  0  0  0
 42  9  1  0  0  0  0
 43 10  1  0  0  0  0
 44 11  1  0  0  0  0
 48 16  1  0  0  0  0
 49 16  1  0  0  0  0
 50 17  1  0  0  0  0
 55 20  1  0  0  0  0
 56 25  1  0  0  0  0
 60 32  1  0  0  0  0
 61 33  1  0  0  0  0
M  END
