omegapdb_2byh_03.xyz
 OpenBabel11041815263D

 40 42  0  0  0  0  0  0  0  0999 V2000
    6.1958    0.6591    3.4659 O   0  0  0  0  0  0  0  0  0  0  0  0
    5.5772    1.2823    2.6155 C   0  0  0  0  0  0  0  0  0  0  0  0
    6.0111    2.6651    2.1942 C   0  0  0  0  0  0  0  0  0  0  0  0
    4.3705    0.6953    1.9672 C   0  0  0  0  0  0  0  0  0  0  0  0
    3.9608   -0.5860    2.3525 C   0  0  0  0  0  0  0  0  0  0  0  0
    2.8463   -1.1657    1.7747 C   0  0  0  0  0  0  0  0  0  0  0  0
    2.1076   -0.4822    0.7970 C   0  0  0  0  0  0  0  0  0  0  0  0
    2.5084    0.7998    0.4049 C   0  0  0  0  0  0  0  0  0  0  0  0
    3.6329    1.3714    0.9928 C   0  0  0  0  0  0  0  0  0  0  0  0
    0.9991   -1.1460    0.2599 N   0  0  0  0  0  0  0  0  0  0  0  0
    0.0872   -0.6904   -0.6635 C   0  0  0  0  0  0  0  0  0  0  0  0
    0.1119    0.4409   -1.1351 O   0  0  0  0  0  0  0  0  0  0  0  0
   -0.8839   -1.7421   -1.0339 C   0  0  0  0  0  0  0  0  0  0  0  0
   -0.5579   -3.1013   -1.2024 C   0  0  0  0  0  0  0  0  0  0  0  0
   -1.6311   -3.8406   -1.5219 N   0  0  0  0  0  0  0  0  0  0  0  0
   -2.6264   -2.9566   -1.5462 N   0  0  0  0  0  0  0  0  0  0  0  0
   -2.2672   -1.6714   -1.2709 C   0  0  0  0  0  0  0  0  0  0  0  0
   -3.2460   -0.5873   -1.2474 C   0  0  0  0  0  0  0  0  0  0  0  0
   -2.8426    0.7368   -1.4586 C   0  0  0  0  0  0  0  0  0  0  0  0
   -3.7588    1.7736   -1.4180 C   0  0  0  0  0  0  0  0  0  0  0  0
   -3.2500    3.4129   -1.6768 Cl  0  0  0  0  0  0  0  0  0  0  0  0
   -5.1145    1.5387   -1.1808 C   0  0  0  0  0  0  0  0  0  0  0  0
   -6.0429    2.5226   -1.1376 O   0  0  0  0  0  0  0  0  0  0  0  0
   -5.5273    0.2252   -0.9882 C   0  0  0  0  0  0  0  0  0  0  0  0
   -4.6150   -0.8203   -1.0218 C   0  0  0  0  0  0  0  0  0  0  0  0
   -5.0349   -2.1173   -0.8331 O   0  0  0  0  0  0  0  0  0  0  0  0
    5.2185    3.3887    2.3813 H   0  0  0  0  0  0  0  0  0  0  0  0
    6.2331    2.6885    1.1279 H   0  0  0  0  0  0  0  0  0  0  0  0
    6.8967    2.9388    2.7582 H   0  0  0  0  0  0  0  0  0  0  0  0
    4.5329   -1.1076    3.1067 H   0  0  0  0  0  0  0  0  0  0  0  0
    2.5360   -2.1589    2.0774 H   0  0  0  0  0  0  0  0  0  0  0  0
    1.9414    1.3305   -0.3403 H   0  0  0  0  0  0  0  0  0  0  0  0
    3.9272    2.3624    0.6773 H   0  0  0  0  0  0  0  0  0  0  0  0
    0.8042   -2.0569    0.6444 H   0  0  0  0  0  0  0  0  0  0  0  0
    0.4126   -3.5662   -1.1481 H   0  0  0  0  0  0  0  0  0  0  0  0
   -3.5740   -3.2684   -1.6908 H   0  0  0  0  0  0  0  0  0  0  0  0
   -1.7995    0.9427   -1.6491 H   0  0  0  0  0  0  0  0  0  0  0  0
   -5.5784    3.3573   -1.2978 H   0  0  0  0  0  0  0  0  0  0  0  0
   -6.5788    0.0362   -0.8118 H   0  0  0  0  0  0  0  0  0  0  0  0
   -5.9823   -2.1031   -0.6576 H   0  0  0  0  0  0  0  0  0  0  0  0
  2  1  2  0  0  0  0
  3 27  1  0  0  0  0
  3  2  1  0  0  0  0
  3 29  1  0  0  0  0
  4  5  1  0  0  0  0
  4  2  1  0  0  0  0
  5 30  1  0  0  0  0
  6 31  1  0  0  0  0
  6  5  2  0  0  0  0
  7  6  1  0  0  0  0
  8  7  2  0  0  0  0
  8  9  1  0  0  0  0
  9  4  2  0  0  0  0
 10 34  1  0  0  0  0
 10  7  1  0  0  0  0
 11 10  1  0  0  0  0
 12 11  2  0  0  0  0
 13 11  1  0  0  0  0
 14 35  1  0  0  0  0
 14 13  1  0  0  0  0
 15 14  2  0  0  0  0
 16 15  1  0  0  0  0
 16 17  1  0  0  0  0
 17 18  1  0  0  0  0
 17 13  2  0  0  0  0
 18 25  2  0  0  0  0
 19 20  2  0  0  0  0
 19 18  1  0  0  0  0
 20 22  1  0  0  0  0
 21 20  1  0  0  0  0
 22 23  1  0  0  0  0
 22 24  2  0  0  0  0
 24 39  1  0  0  0  0
 25 24  1  0  0  0  0
 25 26  1  0  0  0  0
 26 40  1  0  0  0  0
 28  3  1  0  0  0  0
 32  8  1  0  0  0  0
 33  9  1  0  0  0  0
 36 16  1  0  0  0  0
 37 19  1  0  0  0  0
 38 23  1  0  0  0  0
M  END
