omegapdb_2f7p_20.xyz
 OpenBabel11041815263D

 34 35  0  0  1  0  0  0  0  0999 V2000
   -0.7630    0.4105   -0.0400 C   0  0  1  0  0  0  0  0  0  0  0  0
   -0.2714    1.6948    0.4053 N   0  0  0  0  0  0  0  0  0  0  0  0
    0.9854    1.6162    1.1489 C   0  0  0  0  0  0  0  0  0  0  0  0
    2.0822    0.8210    0.4775 C   0  0  0  0  0  0  0  0  0  0  0  0
    2.6970   -0.2484    1.1312 C   0  0  0  0  0  0  0  0  0  0  0  0
    3.6961   -0.9929    0.5052 C   0  0  0  0  0  0  0  0  0  0  0  0
    4.0880   -0.6769   -0.7935 C   0  0  0  0  0  0  0  0  0  0  0  0
    3.4804    0.3879   -1.4586 C   0  0  0  0  0  0  0  0  0  0  0  0
    2.4863    1.1287   -0.8252 C   0  0  0  0  0  0  0  0  0  0  0  0
   -0.9625   -0.6206    1.0758 C   0  0  1  0  0  0  0  0  0  0  0  0
   -1.6081   -0.0194    2.1750 O   0  0  0  0  0  0  0  0  0  0  0  0
   -1.8962   -1.6781    0.4116 C   0  0  1  0  0  0  0  0  0  0  0  0
   -2.8738   -2.1033    1.3425 O   0  0  0  0  0  0  0  0  0  0  0  0
   -2.5321   -0.9576   -0.8080 C   0  0  1  0  0  0  0  0  0  0  0  0
   -3.9234   -1.2253   -0.8351 O   0  0  0  0  0  0  0  0  0  0  0  0
   -2.1721    0.5046   -0.6004 C   0  0  2  0  0  0  0  0  0  0  0  0
   -2.3737    1.4448   -2.1405 S   0  0  0  0  0  0  0  0  0  0  0  0
   -0.1132   -0.0612   -0.7970 H   0  0  0  0  0  0  0  0  0  0  0  0
   -0.1482    2.2841   -0.4118 H   0  0  0  0  0  0  0  0  0  0  0  0
    0.7684    1.1826    2.1260 H   0  0  0  0  0  0  0  0  0  0  0  0
    1.3215    2.6400    1.3212 H   0  0  0  0  0  0  0  0  0  0  0  0
    2.3914   -0.4953    2.1410 H   0  0  0  0  0  0  0  0  0  0  0  0
    4.1626   -1.8173    1.0273 H   0  0  0  0  0  0  0  0  0  0  0  0
    4.8598   -1.2538   -1.2840 H   0  0  0  0  0  0  0  0  0  0  0  0
    3.7819    0.6400   -2.4663 H   0  0  0  0  0  0  0  0  0  0  0  0
    2.0182    1.9535   -1.3503 H   0  0  0  0  0  0  0  0  0  0  0  0
   -0.0169   -1.0711    1.3854 H   0  0  0  0  0  0  0  0  0  0  0  0
   -2.2839   -0.6670    2.4341 H   0  0  0  0  0  0  0  0  0  0  0  0
   -1.3185   -2.5416    0.0829 H   0  0  0  0  0  0  0  0  0  0  0  0
   -3.7258   -1.9608    0.9020 H   0  0  0  0  0  0  0  0  0  0  0  0
   -2.0627   -1.3216   -1.7271 H   0  0  0  0  0  0  0  0  0  0  0  0
   -4.3317   -0.5555   -1.3967 H   0  0  0  0  0  0  0  0  0  0  0  0
   -2.8160    0.9317    0.1676 H   0  0  0  0  0  0  0  0  0  0  0  0
   -2.6262    2.6269   -1.5701 H   0  0  0  0  0  0  0  0  0  0  0  0
  1 18  1  6  0  0  0
  1  2  1  0  0  0  0
  1 10  1  0  0  0  0
  2  3  1  0  0  0  0
  3 21  1  0  0  0  0
  3 20  1  0  0  0  0
  4  5  2  0  0  0  0
  4  3  1  0  0  0  0
  5 22  1  0  0  0  0
  6 23  1  0  0  0  0
  6  5  1  0  0  0  0
  7  6  2  0  0  0  0
  8  9  2  0  0  0  0
  8  7  1  0  0  0  0
  9  4  1  0  0  0  0
 10 27  1  1  0  0  0
 10 11  1  0  0  0  0
 11 28  1  0  0  0  0
 12 29  1  6  0  0  0
 12 10  1  0  0  0  0
 12 13  1  0  0  0  0
 14 31  1  6  0  0  0
 14 16  1  0  0  0  0
 14 12  1  0  0  0  0
 15 14  1  0  0  0  0
 16  1  1  0  0  0  0
 16 33  1  1  0  0  0
 17 34  1  0  0  0  0
 17 16  1  0  0  0  0
 19  2  1  0  0  0  0
 24  7  1  0  0  0  0
 25  8  1  0  0  0  0
 26  9  1  0  0  0  0
 30 13  1  0  0  0  0
 32 15  1  0  0  0  0
M  END
