omegapdb_1gs5_08.xyz
 OpenBabel11041815263D

 24 23  0  0  1  0  0  0  0  0999 V2000
   -0.4822   -0.9741   -0.0646 C   0  0  2  0  0  0  0  0  0  0  0  0
   -1.3188   -2.0819    0.5305 C   0  0  0  0  0  0  0  0  0  0  0  0
   -2.4958   -1.9956    0.8012 O   0  0  0  0  0  0  0  0  0  0  0  0
   -0.5825   -3.1880    0.7276 O   0  0  0  0  0  0  0  0  0  0  0  0
    0.6771   -0.5611    0.8739 C   0  0  0  0  0  0  0  0  0  0  0  0
    2.0491   -0.5645    0.1792 C   0  0  0  0  0  0  0  0  0  0  0  0
    2.9069    0.5724    0.6901 C   0  0  0  0  0  0  0  0  0  0  0  0
    3.8576    0.4340    1.4207 O   0  0  0  0  0  0  0  0  0  0  0  0
    2.5030    1.7953    0.2877 O   0  0  0  0  0  0  0  0  0  0  0  0
   -1.3874    0.1133   -0.3591 N   0  0  0  0  0  0  0  0  0  0  0  0
   -0.9664    1.2475   -0.9514 C   0  0  0  0  0  0  0  0  0  0  0  0
    0.2163    1.4168   -1.2656 O   0  0  0  0  0  0  0  0  0  0  0  0
   -2.0128    2.2979   -1.2038 C   0  0  0  0  0  0  0  0  0  0  0  0
   -0.0550   -1.3573   -0.9947 H   0  0  0  0  0  0  0  0  0  0  0  0
   -1.1767   -3.8459    1.1203 H   0  0  0  0  0  0  0  0  0  0  0  0
    0.7128   -1.2208    1.7384 H   0  0  0  0  0  0  0  0  0  0  0  0
    0.4420    0.4349    1.2443 H   0  0  0  0  0  0  0  0  0  0  0  0
    2.5746   -1.4982    0.3560 H   0  0  0  0  0  0  0  0  0  0  0  0
    1.9095   -0.4321   -0.8928 H   0  0  0  0  0  0  0  0  0  0  0  0
    1.7365    1.7024   -0.3108 H   0  0  0  0  0  0  0  0  0  0  0  0
   -2.3535   -0.0216   -0.1021 H   0  0  0  0  0  0  0  0  0  0  0  0
   -1.9861    2.5640   -2.2573 H   0  0  0  0  0  0  0  0  0  0  0  0
   -1.7533    3.1868   -0.6330 H   0  0  0  0  0  0  0  0  0  0  0  0
   -3.0148    1.9759   -0.9344 H   0  0  0  0  0  0  0  0  0  0  0  0
  1 14  1  6  0  0  0
  1  2  1  0  0  0  0
  1  5  1  0  0  0  0
  2  4  1  0  0  0  0
  2  3  2  0  0  0  0
  4 15  1  0  0  0  0
  5 17  1  0  0  0  0
  5 16  1  0  0  0  0
  6 18  1  0  0  0  0
  6  7  1  0  0  0  0
  6  5  1  0  0  0  0
  7  8  2  0  0  0  0
  9  7  1  0  0  0  0
 10 21  1  0  0  0  0
 10  1  1  0  0  0  0
 11 10  1  0  0  0  0
 12 11  2  0  0  0  0
 13 11  1  0  0  0  0
 13 24  1  0  0  0  0
 13 23  1  0  0  0  0
 19  6  1  0  0  0  0
 20  9  1  0  0  0  0
 22 13  1  0  0  0  0
M  END
