omegapdb_2byh_01.xyz
 OpenBabel11041815263D

 40 42  0  0  0  0  0  0  0  0999 V2000
    2.7566    3.7634    2.3971 O   0  0  0  0  0  0  0  0  0  0  0  0
    3.3038    2.8015    1.8764 C   0  0  0  0  0  0  0  0  0  0  0  0
    4.7700    2.8405    1.5198 C   0  0  0  0  0  0  0  0  0  0  0  0
    2.5380    1.5613    1.5716 C   0  0  0  0  0  0  0  0  0  0  0  0
    1.1874    1.5046    1.9357 C   0  0  0  0  0  0  0  0  0  0  0  0
    0.4342    0.3815    1.6474 C   0  0  0  0  0  0  0  0  0  0  0  0
    1.0109   -0.7161    0.9887 C   0  0  0  0  0  0  0  0  0  0  0  0
    2.3652   -0.6807    0.6433 C   0  0  0  0  0  0  0  0  0  0  0  0
    3.1115    0.4581    0.9340 C   0  0  0  0  0  0  0  0  0  0  0  0
    0.1626   -1.7785    0.6624 N   0  0  0  0  0  0  0  0  0  0  0  0
    0.3345   -2.6755   -0.3797 C   0  0  0  0  0  0  0  0  0  0  0  0
    1.4229   -3.0446   -0.7931 O   0  0  0  0  0  0  0  0  0  0  0  0
   -0.9572   -3.1101   -0.9502 C   0  0  0  0  0  0  0  0  0  0  0  0
   -1.3792   -4.3975   -1.3160 C   0  0  0  0  0  0  0  0  0  0  0  0
   -2.6456   -4.3917   -1.7654 N   0  0  0  0  0  0  0  0  0  0  0  0
   -3.0091   -3.1063   -1.7069 N   0  0  0  0  0  0  0  0  0  0  0  0
   -2.0461   -2.2763   -1.2298 C   0  0  0  0  0  0  0  0  0  0  0  0
   -2.1551   -0.8259   -1.1278 C   0  0  0  0  0  0  0  0  0  0  0  0
   -1.0359   -0.0347   -1.4140 C   0  0  0  0  0  0  0  0  0  0  0  0
   -1.0513    1.3309   -1.1833 C   0  0  0  0  0  0  0  0  0  0  0  0
    0.3501    2.2968   -1.4954 Cl  0  0  0  0  0  0  0  0  0  0  0  0
   -2.1967    1.9580   -0.6816 C   0  0  0  0  0  0  0  0  0  0  0  0
   -2.2550    3.2834   -0.4211 O   0  0  0  0  0  0  0  0  0  0  0  0
   -3.3319    1.1855   -0.4467 C   0  0  0  0  0  0  0  0  0  0  0  0
   -3.3155   -0.1867   -0.6686 C   0  0  0  0  0  0  0  0  0  0  0  0
   -4.4130   -0.9755   -0.4410 O   0  0  0  0  0  0  0  0  0  0  0  0
    4.9071    2.6977    0.4484 H   0  0  0  0  0  0  0  0  0  0  0  0
    5.1746    3.8033    1.8143 H   0  0  0  0  0  0  0  0  0  0  0  0
    5.3096    2.0430    2.0294 H   0  0  0  0  0  0  0  0  0  0  0  0
    0.7487    2.3589    2.4321 H   0  0  0  0  0  0  0  0  0  0  0  0
   -0.6163    0.3476    1.9139 H   0  0  0  0  0  0  0  0  0  0  0  0
    2.8099   -1.5308    0.1522 H   0  0  0  0  0  0  0  0  0  0  0  0
    4.1552    0.4735    0.6530 H   0  0  0  0  0  0  0  0  0  0  0  0
   -0.8047   -1.6167    0.9000 H   0  0  0  0  0  0  0  0  0  0  0  0
   -0.8332   -5.3225   -1.2522 H   0  0  0  0  0  0  0  0  0  0  0  0
   -3.9421   -2.8394   -1.9772 H   0  0  0  0  0  0  0  0  0  0  0  0
   -0.1402   -0.4939   -1.8099 H   0  0  0  0  0  0  0  0  0  0  0  0
   -1.3858    3.6565   -0.6312 H   0  0  0  0  0  0  0  0  0  0  0  0
   -4.2219    1.6800   -0.0782 H   0  0  0  0  0  0  0  0  0  0  0  0
   -5.1174   -0.4226   -0.0843 H   0  0  0  0  0  0  0  0  0  0  0  0
  2  1  2  0  0  0  0
  3 28  1  0  0  0  0
  3  2  1  0  0  0  0
  3 29  1  0  0  0  0
  4  2  1  0  0  0  0
  4  5  2  0  0  0  0
  5 30  1  0  0  0  0
  6 31  1  0  0  0  0
  6  5  1  0  0  0  0
  7  6  2  0  0  0  0
  8  9  2  0  0  0  0
  8  7  1  0  0  0  0
  9  4  1  0  0  0  0
 10 34  1  0  0  0  0
 10  7  1  0  0  0  0
 11 10  1  0  0  0  0
 12 11  2  0  0  0  0
 13 11  1  0  0  0  0
 14 35  1  0  0  0  0
 14 13  1  0  0  0  0
 15 16  1  0  0  0  0
 15 14  2  0  0  0  0
 16 17  1  0  0  0  0
 17 18  1  0  0  0  0
 17 13  2  0  0  0  0
 18 25  2  0  0  0  0
 19 20  2  0  0  0  0
 19 18  1  0  0  0  0
 20 22  1  0  0  0  0
 21 20  1  0  0  0  0
 22 24  2  0  0  0  0
 22 23  1  0  0  0  0
 24 39  1  0  0  0  0
 25 24  1  0  0  0  0
 25 26  1  0  0  0  0
 26 40  1  0  0  0  0
 27  3  1  0  0  0  0
 32  8  1  0  0  0  0
 33  9  1  0  0  0  0
 36 16  1  0  0  0  0
 37 19  1  0  0  0  0
 38 23  1  0  0  0  0
M  END
