omegapdb_2f7p_22.xyz
 OpenBabel11041815263D

 34 35  0  0  1  0  0  0  0  0999 V2000
   -1.2921   -0.5966   -0.5915 C   0  0  1  0  0  0  0  0  0  0  0  0
    0.0000   -0.0185   -0.2626 N   0  0  0  0  0  0  0  0  0  0  0  0
    1.1359   -0.9073   -0.4907 C   0  0  0  0  0  0  0  0  0  0  0  0
    2.4202   -0.1983   -0.1600 C   0  0  0  0  0  0  0  0  0  0  0  0
    2.7197    1.0264   -0.7638 C   0  0  0  0  0  0  0  0  0  0  0  0
    3.9077    1.6879   -0.4685 C   0  0  0  0  0  0  0  0  0  0  0  0
    4.8111    1.1336    0.4387 C   0  0  0  0  0  0  0  0  0  0  0  0
    4.5176   -0.0823    1.0503 C   0  0  0  0  0  0  0  0  0  0  0  0
    3.3257   -0.7413    0.7518 C   0  0  0  0  0  0  0  0  0  0  0  0
   -1.9612   -1.4413    0.5381 C   0  0  1  0  0  0  0  0  0  0  0  0
   -1.0742   -2.0257    1.4690 O   0  0  0  0  0  0  0  0  0  0  0  0
   -2.8867   -0.4639    1.2376 C   0  0  1  0  0  0  0  0  0  0  0  0
   -2.0988    0.4618    1.9664 O   0  0  0  0  0  0  0  0  0  0  0  0
   -3.5270    0.2334    0.0465 C   0  0  1  0  0  0  0  0  0  0  0  0
   -4.2095    1.3908    0.4915 O   0  0  0  0  0  0  0  0  0  0  0  0
   -2.3161    0.5351   -0.8396 C   0  0  2  0  0  0  0  0  0  0  0  0
   -2.8718    0.7917   -2.5502 S   0  0  0  0  0  0  0  0  0  0  0  0
   -1.1646   -1.1976   -1.4926 H   0  0  0  0  0  0  0  0  0  0  0  0
   -0.0134    0.2664    0.7129 H   0  0  0  0  0  0  0  0  0  0  0  0
    1.0926   -1.8384    0.0859 H   0  0  0  0  0  0  0  0  0  0  0  0
    1.1245   -1.1795   -1.5499 H   0  0  0  0  0  0  0  0  0  0  0  0
    2.0067    1.4572   -1.4541 H   0  0  0  0  0  0  0  0  0  0  0  0
    4.1305    2.6338   -0.9435 H   0  0  0  0  0  0  0  0  0  0  0  0
    5.7337    1.6484    0.6692 H   0  0  0  0  0  0  0  0  0  0  0  0
    5.2096   -0.5136    1.7607 H   0  0  0  0  0  0  0  0  0  0  0  0
    3.0927   -1.6829    1.2333 H   0  0  0  0  0  0  0  0  0  0  0  0
   -2.5964   -2.2030    0.0720 H   0  0  0  0  0  0  0  0  0  0  0  0
   -0.7122   -2.8220    1.0699 H   0  0  0  0  0  0  0  0  0  0  0  0
   -3.6132   -0.9603    1.8843 H   0  0  0  0  0  0  0  0  0  0  0  0
   -2.6463    1.2543    2.0495 H   0  0  0  0  0  0  0  0  0  0  0  0
   -4.2158   -0.4567   -0.4544 H   0  0  0  0  0  0  0  0  0  0  0  0
   -4.3913    1.9315   -0.2861 H   0  0  0  0  0  0  0  0  0  0  0  0
   -1.8671    1.4601   -0.4841 H   0  0  0  0  0  0  0  0  0  0  0  0
   -1.7705    1.4169   -2.9802 H   0  0  0  0  0  0  0  0  0  0  0  0
  1 18  1  6  0  0  0
  1  2  1  0  0  0  0
  1 10  1  0  0  0  0
  2 19  1  0  0  0  0
  3  2  1  0  0  0  0
  3  4  1  0  0  0  0
  3 20  1  0  0  0  0
  4  9  2  0  0  0  0
  5  6  2  0  0  0  0
  5  4  1  0  0  0  0
  6  7  1  0  0  0  0
  7 24  1  0  0  0  0
  7  8  2  0  0  0  0
  8 25  1  0  0  0  0
  9  8  1  0  0  0  0
  9 26  1  0  0  0  0
 10 27  1  6  0  0  0
 10 12  1  0  0  0  0
 10 11  1  0  0  0  0
 12 29  1  1  0  0  0
 12 13  1  0  0  0  0
 13 30  1  0  0  0  0
 14 31  1  6  0  0  0
 14 15  1  0  0  0  0
 14 12  1  0  0  0  0
 16  1  1  0  0  0  0
 16 33  1  1  0  0  0
 16 14  1  0  0  0  0
 17 16  1  0  0  0  0
 21  3  1  0  0  0  0
 22  5  1  0  0  0  0
 23  6  1  0  0  0  0
 28 11  1  0  0  0  0
 32 15  1  0  0  0  0
 34 17  1  0  0  0  0
M  END
