omegapdb_1gs5_13.xyz
 OpenBabel11041815263D

 24 23  0  0  1  0  0  0  0  0999 V2000
   -0.2826   -0.6166   -0.4980 C   0  0  2  0  0  0  0  0  0  0  0  0
   -1.1462   -1.5055    0.3973 C   0  0  0  0  0  0  0  0  0  0  0  0
   -2.2713   -1.8434    0.1196 O   0  0  0  0  0  0  0  0  0  0  0  0
   -0.4970   -1.9223    1.5024 O   0  0  0  0  0  0  0  0  0  0  0  0
    0.9185    0.0343    0.1913 C   0  0  0  0  0  0  0  0  0  0  0  0
    2.1031   -0.9236    0.3414 C   0  0  0  0  0  0  0  0  0  0  0  0
    3.2655   -0.2170    0.9767 C   0  0  0  0  0  0  0  0  0  0  0  0
    3.6707   -0.3810    2.1033 O   0  0  0  0  0  0  0  0  0  0  0  0
    3.8197    0.6844    0.1248 O   0  0  0  0  0  0  0  0  0  0  0  0
   -1.1361    0.3587   -1.1493 N   0  0  0  0  0  0  0  0  0  0  0  0
   -1.9449    1.1393   -0.3650 C   0  0  0  0  0  0  0  0  0  0  0  0
   -1.8069    1.1772    0.8492 O   0  0  0  0  0  0  0  0  0  0  0  0
   -2.9976    1.9248   -1.1015 C   0  0  0  0  0  0  0  0  0  0  0  0
    0.0903   -1.2755   -1.2865 H   0  0  0  0  0  0  0  0  0  0  0  0
   -1.1305   -2.4801    1.9799 H   0  0  0  0  0  0  0  0  0  0  0  0
    1.2219    0.8771   -0.4279 H   0  0  0  0  0  0  0  0  0  0  0  0
    0.6155    0.4245    1.1599 H   0  0  0  0  0  0  0  0  0  0  0  0
    2.4102   -1.2808   -0.6426 H   0  0  0  0  0  0  0  0  0  0  0  0
    1.8451   -1.7681    0.9709 H   0  0  0  0  0  0  0  0  0  0  0  0
    4.5304    1.1091    0.6281 H   0  0  0  0  0  0  0  0  0  0  0  0
   -1.4637    0.1460   -2.0761 H   0  0  0  0  0  0  0  0  0  0  0  0
   -3.9361    1.3750   -1.0434 H   0  0  0  0  0  0  0  0  0  0  0  0
   -3.1332    2.8813   -0.6070 H   0  0  0  0  0  0  0  0  0  0  0  0
   -2.7449    2.0822   -2.1472 H   0  0  0  0  0  0  0  0  0  0  0  0
  1 14  1  6  0  0  0
  1  5  1  0  0  0  0
  1  2  1  0  0  0  0
  2  4  1  0  0  0  0
  3  2  2  0  0  0  0
  4 15  1  0  0  0  0
  5  6  1  0  0  0  0
  5 17  1  0  0  0  0
  6 19  1  0  0  0  0
  6  7  1  0  0  0  0
  7  8  2  0  0  0  0
  9 20  1  0  0  0  0
  9  7  1  0  0  0  0
 10  1  1  0  0  0  0
 10 11  1  0  0  0  0
 11 12  2  0  0  0  0
 13 22  1  0  0  0  0
 13 23  1  0  0  0  0
 13 11  1  0  0  0  0
 16  5  1  0  0  0  0
 18  6  1  0  0  0  0
 21 10  1  0  0  0  0
 24 13  1  0  0  0  0
M  END
