omegapdb_1z1r_13.xyz
 OpenBabel11041815263D

 66 68  0  0  1  0  0  0  0  0999 V2000
    0.5282   -0.0705    1.0152 C   0  0  2  0  0  0  0  0  0  0  0  0
    1.1052   -1.1598    0.0898 C   0  0  0  0  0  0  0  0  0  0  0  0
    0.0031   -2.0674   -0.3668 C   0  0  0  0  0  0  0  0  0  0  0  0
   -0.5944   -1.9028   -1.6196 C   0  0  0  0  0  0  0  0  0  0  0  0
   -1.7457   -2.6060   -1.9622 C   0  0  0  0  0  0  0  0  0  0  0  0
   -2.3232   -3.4842   -1.0458 C   0  0  0  0  0  0  0  0  0  0  0  0
   -1.6827   -3.7317    0.1704 C   0  0  0  0  0  0  0  0  0  0  0  0
   -0.5391   -3.0143    0.5057 C   0  0  0  0  0  0  0  0  0  0  0  0
   -3.5121   -4.0744   -1.3873 O   0  0  0  0  0  0  0  0  0  0  0  0
   -4.5470   -3.9627   -0.3969 C   0  0  0  0  0  0  0  0  0  0  0  0
   -5.1113   -2.5599   -0.2564 C   0  0  0  0  0  0  0  0  0  0  0  0
   -4.1432   -1.5303    0.3206 C   0  0  0  0  0  0  0  0  0  0  0  0
   -4.8707   -0.3088    0.8338 C   0  0  0  0  0  0  0  0  0  0  0  0
   -5.9393   -0.3856    1.4236 O   0  0  0  0  0  0  0  0  0  0  0  0
   -4.2782    0.9109    0.6160 N   0  0  0  0  0  0  0  0  0  0  0  0
   -2.9537    1.1481    0.1005 C   0  0  2  0  0  0  0  0  0  0  0  0
   -1.8526    0.5453    0.9907 C   0  0  0  0  0  0  0  0  0  0  0  0
   -2.0733    0.1511    2.1299 O   0  0  0  0  0  0  0  0  0  0  0  0
   -0.6339    0.5262    0.3973 N   0  0  0  0  0  0  0  0  0  0  0  0
   -2.7561    2.6602   -0.0198 C   0  0  0  0  0  0  0  0  0  0  0  0
   -1.5294    3.0027   -0.8419 C   0  0  0  0  0  0  0  0  0  0  0  0
   -1.2209    2.3606   -1.8405 O   0  0  0  0  0  0  0  0  0  0  0  0
   -0.8279    4.0818   -0.4235 N   0  0  0  0  0  0  0  0  0  0  0  0
    1.5340    1.0263    1.3480 C   0  0  2  0  0  0  0  0  0  0  0  0
    1.8733    1.6715    0.1302 O   0  0  0  0  0  0  0  0  0  0  0  0
    2.7851    0.4873    2.0244 C   0  0  0  0  0  0  0  0  0  0  0  0
    3.7479    1.5825    2.1818 N   0  0  0  0  0  0  0  0  0  0  0  0
    5.3456    1.2432    1.8159 S   0  0  0  0  0  0  0  0  0  0  0  0
    5.6976   -0.1060    2.2120 O   0  0  0  0  0  0  0  0  0  0  0  0
    6.0881    2.3887    2.2982 O   0  0  0  0  0  0  0  0  0  0  0  0
    5.2370    1.2759    0.0499 C   0  0  0  0  0  0  0  0  0  0  0  0
    5.1604    0.0763   -0.6518 C   0  0  0  0  0  0  0  0  0  0  0  0
    4.9834    0.1198   -2.0335 C   0  0  0  0  0  0  0  0  0  0  0  0
    4.8872    1.3452   -2.6893 C   0  0  0  0  0  0  0  0  0  0  0  0
    4.9851    2.5382   -1.9713 C   0  0  0  0  0  0  0  0  0  0  0  0
    5.1594    2.5120   -0.5915 C   0  0  0  0  0  0  0  0  0  0  0  0
    0.1739   -0.5225    1.9433 H   0  0  0  0  0  0  0  0  0  0  0  0
    1.8638   -1.7269    0.6321 H   0  0  0  0  0  0  0  0  0  0  0  0
    1.5901   -0.6773   -0.7606 H   0  0  0  0  0  0  0  0  0  0  0  0
   -0.1769   -1.1898   -2.3211 H   0  0  0  0  0  0  0  0  0  0  0  0
   -2.2380   -2.4503   -2.9126 H   0  0  0  0  0  0  0  0  0  0  0  0
   -2.0900   -4.4540    0.8635 H   0  0  0  0  0  0  0  0  0  0  0  0
   -0.0732   -3.1817    1.4700 H   0  0  0  0  0  0  0  0  0  0  0  0
   -4.1894   -4.3257    0.5691 H   0  0  0  0  0  0  0  0  0  0  0  0
   -5.3235   -4.6414   -0.7431 H   0  0  0  0  0  0  0  0  0  0  0  0
   -5.9745   -2.6156    0.4095 H   0  0  0  0  0  0  0  0  0  0  0  0
   -5.4770   -2.2248   -1.2287 H   0  0  0  0  0  0  0  0  0  0  0  0
   -3.6230   -1.9402    1.1901 H   0  0  0  0  0  0  0  0  0  0  0  0
   -3.3708   -1.2662   -0.3967 H   0  0  0  0  0  0  0  0  0  0  0  0
   -4.6978    1.6411    1.1729 H   0  0  0  0  0  0  0  0  0  0  0  0
   -2.8576    0.7314   -0.9031 H   0  0  0  0  0  0  0  0  0  0  0  0
   -0.5577    0.8500   -0.5582 H   0  0  0  0  0  0  0  0  0  0  0  0
   -2.7120    3.1099    0.9741 H   0  0  0  0  0  0  0  0  0  0  0  0
   -3.6206    3.0770   -0.5411 H   0  0  0  0  0  0  0  0  0  0  0  0
    0.0453    4.2722   -0.8848 H   0  0  0  0  0  0  0  0  0  0  0  0
   -1.0018    4.4956    0.4727 H   0  0  0  0  0  0  0  0  0  0  0  0
    1.0384    1.7349    2.0239 H   0  0  0  0  0  0  0  0  0  0  0  0
    2.6749    2.1815    0.3151 H   0  0  0  0  0  0  0  0  0  0  0  0
    2.5483    0.0148    2.9789 H   0  0  0  0  0  0  0  0  0  0  0  0
    3.2446   -0.2655    1.3874 H   0  0  0  0  0  0  0  0  0  0  0  0
    3.7242    2.0647    3.0747 H   0  0  0  0  0  0  0  0  0  0  0  0
    5.2520   -0.8602   -0.1202 H   0  0  0  0  0  0  0  0  0  0  0  0
    4.9202   -0.8019   -2.5950 H   0  0  0  0  0  0  0  0  0  0  0  0
    4.7450    1.3727   -3.7606 H   0  0  0  0  0  0  0  0  0  0  0  0
    4.9275    3.4864   -2.4876 H   0  0  0  0  0  0  0  0  0  0  0  0
    5.2498    3.4225   -0.0147 H   0  0  0  0  0  0  0  0  0  0  0  0
  1 24  1  0  0  0  0
  1 37  1  1  0  0  0
  2 38  1  0  0  0  0
  2  1  1  0  0  0  0
  3  2  1  0  0  0  0
  3  8  2  0  0  0  0
  4  3  1  0  0  0  0
  5  4  2  0  0  0  0
  5  6  1  0  0  0  0
  6  7  2  0  0  0  0
  7  8  1  0  0  0  0
  7 42  1  0  0  0  0
  8 43  1  0  0  0  0
  9  6  1  0  0  0  0
  9 10  1  0  0  0  0
 10 11  1  0  0  0  0
 10 44  1  0  0  0  0
 11 12  1  0  0  0  0
 11 46  1  0  0  0  0
 12 13  1  0  0  0  0
 12 48  1  0  0  0  0
 13 14  2  0  0  0  0
 15 13  1  0  0  0  0
 15 50  1  0  0  0  0
 16 51  1  6  0  0  0
 16 15  1  0  0  0  0
 16 17  1  0  0  0  0
 17 18  2  0  0  0  0
 19 17  1  0  0  0  0
 19  1  1  0  0  0  0
 20 16  1  0  0  0  0
 20 53  1  0  0  0  0
 21 23  1  0  0  0  0
 21 20  1  0  0  0  0
 22 21  2  0  0  0  0
 23 56  1  0  0  0  0
 24 57  1  1  0  0  0
 24 26  1  0  0  0  0
 25 58  1  0  0  0  0
 25 24  1  0  0  0  0
 26 27  1  0  0  0  0
 26 59  1  0  0  0  0
 27 61  1  0  0  0  0
 28 27  1  0  0  0  0
 28 29  2  0  0  0  0
 28 30  2  0  0  0  0
 31 28  1  0  0  0  0
 32 62  1  0  0  0  0
 32 31  2  0  0  0  0
 33 32  1  0  0  0  0
 34 33  2  0  0  0  0
 34 35  1  0  0  0  0
 35 36  2  0  0  0  0
 36 66  1  0  0  0  0
 36 31  1  0  0  0  0
 39  2  1  0  0  0  0
 40  4  1  0  0  0  0
 41  5  1  0  0  0  0
 45 10  1  0  0  0  0
 47 11  1  0  0  0  0
 49 12  1  0  0  0  0
 52 19  1  0  0  0  0
 54 20  1  0  0  0  0
 55 23  1  0  0  0  0
 60 26  1  0  0  0  0
 63 33  1  0  0  0  0
 64 34  1  0  0  0  0
 65 35  1  0  0  0  0
M  END
