omegapdb_1m5f_11.xyz
 OpenBabel11041815263D

 25 25  0  0  1  0  0  0  0  0999 V2000
   -1.2589   -3.5360   -1.1923 O   0  0  0  0  0  0  0  0  0  0  0  0
   -0.7771   -2.3001   -1.3878 C   0  0  0  0  0  0  0  0  0  0  0  0
    0.0963   -2.0349   -2.1879 O   0  0  0  0  0  0  0  0  0  0  0  0
   -1.4337   -1.2911   -0.5359 C   0  0  0  0  0  0  0  0  0  0  0  0
   -2.6039   -1.5400    0.0435 N   0  0  0  0  0  0  0  0  0  0  0  0
   -2.9181   -0.3844    0.7211 O   0  0  0  0  0  0  0  0  0  0  0  0
   -1.9408    0.5339    0.5422 C   0  0  0  0  0  0  0  0  0  0  0  0
   -0.9615    0.0133   -0.2594 C   0  0  0  0  0  0  0  0  0  0  0  0
    0.3043    0.6706   -0.6932 C   0  0  0  0  0  0  0  0  0  0  0  0
    1.4272    0.6492    0.3525 C   0  0  2  0  0  0  0  0  0  0  0  0
    2.5898    1.4598   -0.0267 N   0  0  0  0  0  0  0  0  0  0  0  0
    1.9043   -0.7735    0.6817 C   0  0  0  0  0  0  0  0  0  0  0  0
    1.1646   -1.7223    0.7778 O   0  0  0  0  0  0  0  0  0  0  0  0
    3.2232   -0.8545    0.8982 O   0  0  0  0  0  0  0  0  0  0  0  0
   -2.1161    1.8377    1.2240 C   0  0  0  0  0  0  0  0  0  0  0  0
   -0.7585   -4.1027   -1.7992 H   0  0  0  0  0  0  0  0  0  0  0  0
    0.1022    1.7191   -0.9232 H   0  0  0  0  0  0  0  0  0  0  0  0
    0.6584    0.1919   -1.6054 H   0  0  0  0  0  0  0  0  0  0  0  0
    1.0440    1.0470    1.2954 H   0  0  0  0  0  0  0  0  0  0  0  0
    2.4406    2.4357    0.1909 H   0  0  0  0  0  0  0  0  0  0  0  0
    2.7438    1.3995   -1.0273 H   0  0  0  0  0  0  0  0  0  0  0  0
    3.5488    0.0548    0.7194 H   0  0  0  0  0  0  0  0  0  0  0  0
   -1.3798    2.5481    0.8542 H   0  0  0  0  0  0  0  0  0  0  0  0
   -1.9892    1.7387    2.3015 H   0  0  0  0  0  0  0  0  0  0  0  0
   -3.1098    2.2401    1.0360 H   0  0  0  0  0  0  0  0  0  0  0  0
  2  1  1  0  0  0  0
  2  4  1  0  0  0  0
  3  2  2  0  0  0  0
  4  8  1  0  0  0  0
  4  5  2  0  0  0  0
  5  6  1  0  0  0  0
  7  6  1  0  0  0  0
  7 15  1  0  0  0  0
  8  7  2  0  0  0  0
  9  8  1  0  0  0  0
  9 10  1  0  0  0  0
 10 12  1  0  0  0  0
 10 19  1  1  0  0  0
 11 20  1  0  0  0  0
 11 10  1  0  0  0  0
 12 13  2  0  0  0  0
 12 14  1  0  0  0  0
 15 24  1  0  0  0  0
 16  1  1  0  0  0  0
 17  9  1  0  0  0  0
 18  9  1  0  0  0  0
 21 11  1  0  0  0  0
 22 14  1  0  0  0  0
 23 15  1  0  0  0  0
 25 15  1  0  0  0  0
M  END
