omegapdb_2byh_13.xyz
 OpenBabel11041815263D

 40 42  0  0  0  0  0  0  0  0999 V2000
    5.5645    3.2724    1.6430 O   0  0  0  0  0  0  0  0  0  0  0  0
    5.4519    2.0985    1.9630 C   0  0  0  0  0  0  0  0  0  0  0  0
    6.4782    1.4311    2.8466 C   0  0  0  0  0  0  0  0  0  0  0  0
    4.2969    1.2842    1.4881 C   0  0  0  0  0  0  0  0  0  0  0  0
    3.3402    1.8875    0.6677 C   0  0  0  0  0  0  0  0  0  0  0  0
    2.2411    1.1847    0.1938 C   0  0  0  0  0  0  0  0  0  0  0  0
    2.0864   -0.1639    0.5439 C   0  0  0  0  0  0  0  0  0  0  0  0
    3.0417   -0.7758    1.3646 C   0  0  0  0  0  0  0  0  0  0  0  0
    4.1339   -0.0616    1.8335 C   0  0  0  0  0  0  0  0  0  0  0  0
    1.0186   -0.9570    0.1080 N   0  0  0  0  0  0  0  0  0  0  0  0
   -0.0561   -0.5959   -0.6711 C   0  0  0  0  0  0  0  0  0  0  0  0
   -0.2617    0.5377   -1.0817 O   0  0  0  0  0  0  0  0  0  0  0  0
   -0.9458   -1.7363   -0.9731 C   0  0  0  0  0  0  0  0  0  0  0  0
   -0.6153   -3.0994   -1.1067 C   0  0  0  0  0  0  0  0  0  0  0  0
   -1.6914   -3.8519   -1.3851 N   0  0  0  0  0  0  0  0  0  0  0  0
   -2.6943   -2.9685   -1.4149 N   0  0  0  0  0  0  0  0  0  0  0  0
   -2.3244   -1.6738   -1.1889 C   0  0  0  0  0  0  0  0  0  0  0  0
   -3.3094   -0.5943   -1.1722 C   0  0  0  0  0  0  0  0  0  0  0  0
   -3.1641    0.5311   -1.9901 C   0  0  0  0  0  0  0  0  0  0  0  0
   -4.1258    1.5278   -2.0038 C   0  0  0  0  0  0  0  0  0  0  0  0
   -3.9325    2.9057   -3.0235 Cl  0  0  0  0  0  0  0  0  0  0  0  0
   -5.2634    1.4228   -1.1931 C   0  0  0  0  0  0  0  0  0  0  0  0
   -6.1803    2.4229   -1.2439 O   0  0  0  0  0  0  0  0  0  0  0  0
   -5.4041    0.3140   -0.3658 C   0  0  0  0  0  0  0  0  0  0  0  0
   -4.4396   -0.6866   -0.3481 C   0  0  0  0  0  0  0  0  0  0  0  0
   -4.6585   -1.7388    0.5012 O   0  0  0  0  0  0  0  0  0  0  0  0
    6.9303    0.5820    2.3350 H   0  0  0  0  0  0  0  0  0  0  0  0
    6.0137    1.0578    3.7588 H   0  0  0  0  0  0  0  0  0  0  0  0
    7.2450    2.1563    3.0981 H   0  0  0  0  0  0  0  0  0  0  0  0
    3.4741    2.9281    0.4072 H   0  0  0  0  0  0  0  0  0  0  0  0
    1.5044    1.6589   -0.4318 H   0  0  0  0  0  0  0  0  0  0  0  0
    2.9244   -1.8185    1.6347 H   0  0  0  0  0  0  0  0  0  0  0  0
    4.8543   -0.5604    2.4659 H   0  0  0  0  0  0  0  0  0  0  0  0
    1.0023   -1.8999    0.4626 H   0  0  0  0  0  0  0  0  0  0  0  0
    0.3533   -3.5688   -1.0543 H   0  0  0  0  0  0  0  0  0  0  0  0
   -3.6235   -3.2869   -1.6471 H   0  0  0  0  0  0  0  0  0  0  0  0
   -2.2843    0.6300   -2.6069 H   0  0  0  0  0  0  0  0  0  0  0  0
   -6.8905    2.2101   -0.6283 H   0  0  0  0  0  0  0  0  0  0  0  0
   -6.2612    0.2192    0.2888 H   0  0  0  0  0  0  0  0  0  0  0  0
   -3.8289   -2.2246    0.5921 H   0  0  0  0  0  0  0  0  0  0  0  0
  1  2  2  0  0  0  0
  2  3  1  0  0  0  0
  3 29  1  0  0  0  0
  3 28  1  0  0  0  0
  4  9  1  0  0  0  0
  4  2  1  0  0  0  0
  5  4  2  0  0  0  0
  6  7  2  0  0  0  0
  6  5  1  0  0  0  0
  7  8  1  0  0  0  0
  8 32  1  0  0  0  0
  8  9  2  0  0  0  0
  9 33  1  0  0  0  0
 10 34  1  0  0  0  0
 10  7  1  0  0  0  0
 11 10  1  0  0  0  0
 12 11  2  0  0  0  0
 13 11  1  0  0  0  0
 14 35  1  0  0  0  0
 14 13  1  0  0  0  0
 15 14  2  0  0  0  0
 16 15  1  0  0  0  0
 16 17  1  0  0  0  0
 17 18  1  0  0  0  0
 17 13  2  0  0  0  0
 18 25  2  0  0  0  0
 19 18  1  0  0  0  0
 20 19  2  0  0  0  0
 20 22  1  0  0  0  0
 21 20  1  0  0  0  0
 22 24  2  0  0  0  0
 23 22  1  0  0  0  0
 23 38  1  0  0  0  0
 24 25  1  0  0  0  0
 24 39  1  0  0  0  0
 25 26  1  0  0  0  0
 26 40  1  0  0  0  0
 27  3  1  0  0  0  0
 30  5  1  0  0  0  0
 31  6  1  0  0  0  0
 36 16  1  0  0  0  0
 37 19  1  0  0  0  0
M  END
