omegapdb_1gs5_05.xyz
 OpenBabel11041815263D

 24 23  0  0  1  0  0  0  0  0999 V2000
   -0.5177   -0.5778   -0.2466 C   0  0  2  0  0  0  0  0  0  0  0  0
   -1.0264   -1.7987    0.4790 C   0  0  0  0  0  0  0  0  0  0  0  0
   -2.0635   -1.8495    1.1018 O   0  0  0  0  0  0  0  0  0  0  0  0
   -0.1721   -2.8376    0.3852 O   0  0  0  0  0  0  0  0  0  0  0  0
    0.6436    0.0809    0.5162 C   0  0  0  0  0  0  0  0  0  0  0  0
    1.9692   -0.6413    0.3581 C   0  0  0  0  0  0  0  0  0  0  0  0
    3.0749    0.0676    1.0877 C   0  0  0  0  0  0  0  0  0  0  0  0
    2.9515    1.0392    1.7967 O   0  0  0  0  0  0  0  0  0  0  0  0
    4.2699   -0.5302    0.8645 O   0  0  0  0  0  0  0  0  0  0  0  0
   -1.6307    0.3260   -0.3876 N   0  0  0  0  0  0  0  0  0  0  0  0
   -1.6066    1.3108   -1.3263 C   0  0  0  0  0  0  0  0  0  0  0  0
   -0.6422    1.4719   -2.0658 O   0  0  0  0  0  0  0  0  0  0  0  0
   -2.8462    2.1701   -1.3726 C   0  0  0  0  0  0  0  0  0  0  0  0
   -0.1661   -0.8666   -1.2385 H   0  0  0  0  0  0  0  0  0  0  0  0
   -0.5688   -3.5528    0.9069 H   0  0  0  0  0  0  0  0  0  0  0  0
    0.3802    0.1798    1.5697 H   0  0  0  0  0  0  0  0  0  0  0  0
    0.7393    1.0872    0.1138 H   0  0  0  0  0  0  0  0  0  0  0  0
    2.2510   -0.7102   -0.6937 H   0  0  0  0  0  0  0  0  0  0  0  0
    1.9304   -1.6644    0.7295 H   0  0  0  0  0  0  0  0  0  0  0  0
    4.9143   -0.0147    1.3722 H   0  0  0  0  0  0  0  0  0  0  0  0
   -2.4344    0.1672    0.1982 H   0  0  0  0  0  0  0  0  0  0  0  0
   -3.7267    1.5606   -1.5690 H   0  0  0  0  0  0  0  0  0  0  0  0
   -2.9919    2.6763   -0.4199 H   0  0  0  0  0  0  0  0  0  0  0  0
   -2.7312    2.9064   -2.1597 H   0  0  0  0  0  0  0  0  0  0  0  0
  1 14  1  6  0  0  0
  1  2  1  0  0  0  0
  1  5  1  0  0  0  0
  2  3  2  0  0  0  0
  4  2  1  0  0  0  0
  4 15  1  0  0  0  0
  5 16  1  0  0  0  0
  6  5  1  0  0  0  0
  6 19  1  0  0  0  0
  6  7  1  0  0  0  0
  7  8  2  0  0  0  0
  9  7  1  0  0  0  0
  9 20  1  0  0  0  0
 10  1  1  0  0  0  0
 10 21  1  0  0  0  0
 11 10  1  0  0  0  0
 12 11  2  0  0  0  0
 13 11  1  0  0  0  0
 13 23  1  0  0  0  0
 17  5  1  0  0  0  0
 18  6  1  0  0  0  0
 22 13  1  0  0  0  0
 24 13  1  0  0  0  0
M  END
