omegapdb_1qxw_31.xyz
 OpenBabel11041815263D

 36 36  0  0  1  0  0  0  0  0999 V2000
    5.1549    0.5083    0.2612 C   0  0  0  0  0  0  0  0  0  0  0  0
    4.3577    0.5791   -1.0239 C   0  0  0  0  0  0  0  0  0  0  0  0
    3.7510    1.0152    0.2873 C   0  0  0  0  0  0  0  0  0  0  0  0
    2.7386    0.2295    0.9371 N   0  0  0  0  0  0  0  0  0  0  0  0
    1.4425    0.2992    0.2665 C   0  0  0  0  0  0  0  0  0  0  0  0
    0.4280   -0.3916    1.1651 C   0  0  0  0  0  0  0  0  0  0  0  0
   -1.0394   -0.2005    0.7503 C   0  0  1  0  0  0  0  0  0  0  0  0
   -1.5185    1.1647    0.9351 N   0  0  0  0  0  0  0  0  0  0  0  0
   -1.2929   -0.6899   -0.6713 C   0  0  0  0  0  0  0  0  0  0  0  0
   -2.7486   -1.0339   -0.9858 C   0  0  0  0  0  0  0  0  0  0  0  0
   -3.6953    0.1545   -1.1098 C   0  0  0  0  0  0  0  0  0  0  0  0
   -5.1024   -0.2849   -1.4931 C   0  0  0  0  0  0  0  0  0  0  0  0
    0.5439    0.1018    2.4745 O   0  0  0  0  0  0  0  0  0  0  0  0
    0.7859   -1.7700    1.1290 O   0  0  0  0  0  0  0  0  0  0  0  0
    5.3294   -0.4723    0.6793 H   0  0  0  0  0  0  0  0  0  0  0  0
    5.9579    1.2135    0.4063 H   0  0  0  0  0  0  0  0  0  0  0  0
    4.0077   -0.3576   -1.4325 H   0  0  0  0  0  0  0  0  0  0  0  0
    4.6268    1.3305   -1.7503 H   0  0  0  0  0  0  0  0  0  0  0  0
    3.6180    2.0792    0.4293 H   0  0  0  0  0  0  0  0  0  0  0  0
    3.0233   -0.7444    0.9691 H   0  0  0  0  0  0  0  0  0  0  0  0
    1.1703    1.3496    0.1642 H   0  0  0  0  0  0  0  0  0  0  0  0
    1.4444   -0.1605   -0.7257 H   0  0  0  0  0  0  0  0  0  0  0  0
   -1.6053   -0.8396    1.4392 H   0  0  0  0  0  0  0  0  0  0  0  0
   -1.1630    1.7570    0.1939 H   0  0  0  0  0  0  0  0  0  0  0  0
   -1.1466    1.5238    1.8070 H   0  0  0  0  0  0  0  0  0  0  0  0
   -0.9385    0.0677   -1.3790 H   0  0  0  0  0  0  0  0  0  0  0  0
   -0.6816   -1.5787   -0.8271 H   0  0  0  0  0  0  0  0  0  0  0  0
   -3.1241   -1.7154   -0.2165 H   0  0  0  0  0  0  0  0  0  0  0  0
   -2.7732   -1.5939   -1.9250 H   0  0  0  0  0  0  0  0  0  0  0  0
   -3.3047    0.8377   -1.8692 H   0  0  0  0  0  0  0  0  0  0  0  0
   -3.7092    0.7086   -0.1736 H   0  0  0  0  0  0  0  0  0  0  0  0
   -5.1014   -0.8193   -2.4436 H   0  0  0  0  0  0  0  0  0  0  0  0
   -5.7765    0.5650   -1.5878 H   0  0  0  0  0  0  0  0  0  0  0  0
   -5.5159   -0.9547   -0.7388 H   0  0  0  0  0  0  0  0  0  0  0  0
    1.4956    0.2902    2.5663 H   0  0  0  0  0  0  0  0  0  0  0  0
    0.3614   -2.1677    1.8987 H   0  0  0  0  0  0  0  0  0  0  0  0
  1  3  1  0  0  0  0
  1 16  1  0  0  0  0
  1 15  1  0  0  0  0
  2  1  1  0  0  0  0
  2  3  1  0  0  0  0
  3 19  1  0  0  0  0
  3  4  1  0  0  0  0
  4 20  1  0  0  0  0
  5  4  1  0  0  0  0
  5  6  1  0  0  0  0
  6 13  1  0  0  0  0
  7  8  1  0  0  0  0
  7  6  1  0  0  0  0
  7 23  1  1  0  0  0
  8 25  1  0  0  0  0
  9  7  1  0  0  0  0
 10  9  1  0  0  0  0
 10 28  1  0  0  0  0
 11 10  1  0  0  0  0
 11 31  1  0  0  0  0
 12 11  1  0  0  0  0
 12 34  1  0  0  0  0
 13 35  1  0  0  0  0
 14  6  1  0  0  0  0
 14 36  1  0  0  0  0
 17  2  1  0  0  0  0
 18  2  1  0  0  0  0
 21  5  1  0  0  0  0
 22  5  1  0  0  0  0
 24  8  1  0  0  0  0
 26  9  1  0  0  0  0
 27  9  1  0  0  0  0
 29 10  1  0  0  0  0
 30 11  1  0  0  0  0
 32 12  1  0  0  0  0
 33 12  1  0  0  0  0
M  END
