omegapdb_1z1r_23.xyz
 OpenBabel11041815263D

 66 68  0  0  1  0  0  0  0  0999 V2000
    0.6433   -0.1367    0.5012 C   0  0  2  0  0  0  0  0  0  0  0  0
    0.8097   -1.6369    0.9004 C   0  0  0  0  0  0  0  0  0  0  0  0
   -0.4350   -2.4358    0.6290 C   0  0  0  0  0  0  0  0  0  0  0  0
   -1.4035   -2.5857    1.6294 C   0  0  0  0  0  0  0  0  0  0  0  0
   -2.6817   -3.0529    1.3354 C   0  0  0  0  0  0  0  0  0  0  0  0
   -3.0124   -3.3826    0.0210 C   0  0  0  0  0  0  0  0  0  0  0  0
   -2.0226   -3.3439   -0.9668 C   0  0  0  0  0  0  0  0  0  0  0  0
   -0.7531   -2.8617   -0.6643 C   0  0  0  0  0  0  0  0  0  0  0  0
   -4.2983   -3.7810   -0.2221 O   0  0  0  0  0  0  0  0  0  0  0  0
   -4.9225   -3.2503   -1.3930 C   0  0  0  0  0  0  0  0  0  0  0  0
   -5.5620   -1.8863   -1.1817 C   0  0  0  0  0  0  0  0  0  0  0  0
   -4.5994   -0.7298   -0.9064 C   0  0  0  0  0  0  0  0  0  0  0  0
   -4.3930   -0.4862    0.5808 C   0  0  0  0  0  0  0  0  0  0  0  0
   -5.0483   -1.0695    1.4337 O   0  0  0  0  0  0  0  0  0  0  0  0
   -3.4144    0.4050    0.9395 N   0  0  0  0  0  0  0  0  0  0  0  0
   -2.8035    1.4349    0.1257 C   0  0  2  0  0  0  0  0  0  0  0  0
   -1.2675    1.4108    0.2209 C   0  0  0  0  0  0  0  0  0  0  0  0
   -0.6029    2.4422    0.1156 O   0  0  0  0  0  0  0  0  0  0  0  0
   -0.7663    0.1766    0.3753 N   0  0  0  0  0  0  0  0  0  0  0  0
   -3.2882    2.8357    0.4940 C   0  0  0  0  0  0  0  0  0  0  0  0
   -2.8082    3.2179    1.8802 C   0  0  0  0  0  0  0  0  0  0  0  0
   -2.6599    2.3896    2.7723 O   0  0  0  0  0  0  0  0  0  0  0  0
   -2.6207    4.5478    2.0838 N   0  0  0  0  0  0  0  0  0  0  0  0
    1.4015    0.2318   -0.7725 C   0  0  2  0  0  0  0  0  0  0  0  0
    1.1131   -0.7104   -1.7895 O   0  0  0  0  0  0  0  0  0  0  0  0
    2.8997    0.2824   -0.5133 C   0  0  0  0  0  0  0  0  0  0  0  0
    3.5618    0.6236   -1.7742 N   0  0  0  0  0  0  0  0  0  0  0  0
    5.1456    0.1493   -1.9722 S   0  0  0  0  0  0  0  0  0  0  0  0
    5.5759    0.7566   -3.2121 O   0  0  0  0  0  0  0  0  0  0  0  0
    5.1737   -1.2794   -1.7503 O   0  0  0  0  0  0  0  0  0  0  0  0
    6.0160    0.9224   -0.6344 C   0  0  0  0  0  0  0  0  0  0  0  0
    6.4534    2.2379   -0.7846 C   0  0  0  0  0  0  0  0  0  0  0  0
    7.0858    2.8613    0.2869 C   0  0  0  0  0  0  0  0  0  0  0  0
    7.2706    2.1767    1.4882 C   0  0  0  0  0  0  0  0  0  0  0  0
    6.8325    0.8600    1.6201 C   0  0  0  0  0  0  0  0  0  0  0  0
    6.1976    0.2222    0.5567 C   0  0  0  0  0  0  0  0  0  0  0  0
    1.0555    0.4977    1.2916 H   0  0  0  0  0  0  0  0  0  0  0  0
    1.0473   -1.6924    1.9624 H   0  0  0  0  0  0  0  0  0  0  0  0
    1.6509   -2.0512    0.3466 H   0  0  0  0  0  0  0  0  0  0  0  0
   -1.1750   -2.2755    2.6425 H   0  0  0  0  0  0  0  0  0  0  0  0
   -3.4506   -3.1091    2.0922 H   0  0  0  0  0  0  0  0  0  0  0  0
   -2.2404   -3.6678   -1.9745 H   0  0  0  0  0  0  0  0  0  0  0  0
   -0.0157   -2.7629   -1.4472 H   0  0  0  0  0  0  0  0  0  0  0  0
   -4.2144   -3.2121   -2.2227 H   0  0  0  0  0  0  0  0  0  0  0  0
   -5.6964   -3.9713   -1.6501 H   0  0  0  0  0  0  0  0  0  0  0  0
   -6.1225   -1.6735   -2.0946 H   0  0  0  0  0  0  0  0  0  0  0  0
   -6.2738   -1.9490   -0.3601 H   0  0  0  0  0  0  0  0  0  0  0  0
   -3.6327   -0.8886   -1.3908 H   0  0  0  0  0  0  0  0  0  0  0  0
   -5.0092    0.1906   -1.3315 H   0  0  0  0  0  0  0  0  0  0  0  0
   -3.3709    0.6004    1.9345 H   0  0  0  0  0  0  0  0  0  0  0  0
   -3.0483    1.2426   -0.9187 H   0  0  0  0  0  0  0  0  0  0  0  0
   -1.4362   -0.5629    0.5379 H   0  0  0  0  0  0  0  0  0  0  0  0
   -4.3791    2.8529    0.4916 H   0  0  0  0  0  0  0  0  0  0  0  0
   -2.9299    3.5534   -0.2408 H   0  0  0  0  0  0  0  0  0  0  0  0
   -2.4745    5.1516    1.2963 H   0  0  0  0  0  0  0  0  0  0  0  0
   -2.2019    4.8123    2.9594 H   0  0  0  0  0  0  0  0  0  0  0  0
    1.0667    1.2311   -1.0668 H   0  0  0  0  0  0  0  0  0  0  0  0
    1.7892   -0.5732   -2.4680 H   0  0  0  0  0  0  0  0  0  0  0  0
    3.2588   -0.7038   -0.2221 H   0  0  0  0  0  0  0  0  0  0  0  0
    3.1310    0.9986    0.2800 H   0  0  0  0  0  0  0  0  0  0  0  0
    3.4683    1.5996   -2.0380 H   0  0  0  0  0  0  0  0  0  0  0  0
    6.3223    2.7419   -1.7320 H   0  0  0  0  0  0  0  0  0  0  0  0
    7.4398    3.8775    0.1830 H   0  0  0  0  0  0  0  0  0  0  0  0
    7.7646    2.6656    2.3162 H   0  0  0  0  0  0  0  0  0  0  0  0
    6.9889    0.3275    2.5479 H   0  0  0  0  0  0  0  0  0  0  0  0
    5.8716   -0.8057    0.6275 H   0  0  0  0  0  0  0  0  0  0  0  0
  1  2  1  0  0  0  0
  1 37  1  1  0  0  0
  2 38  1  0  0  0  0
  3  2  1  0  0  0  0
  3  4  2  0  0  0  0
  4 40  1  0  0  0  0
  5  4  1  0  0  0  0
  5 41  1  0  0  0  0
  6  5  2  0  0  0  0
  7  8  2  0  0  0  0
  7  6  1  0  0  0  0
  8  3  1  0  0  0  0
  9  6  1  0  0  0  0
 10 11  1  0  0  0  0
 10  9  1  0  0  0  0
 11 12  1  0  0  0  0
 11 47  1  0  0  0  0
 12 13  1  0  0  0  0
 13 15  1  0  0  0  0
 13 14  2  0  0  0  0
 15 50  1  0  0  0  0
 16 51  1  6  0  0  0
 16 17  1  0  0  0  0
 16 20  1  0  0  0  0
 16 15  1  0  0  0  0
 17 19  1  0  0  0  0
 18 17  2  0  0  0  0
 19  1  1  0  0  0  0
 19 52  1  0  0  0  0
 20 21  1  0  0  0  0
 21 23  1  0  0  0  0
 21 22  2  0  0  0  0
 23 56  1  0  0  0  0
 24 57  1  6  0  0  0
 24 26  1  0  0  0  0
 24  1  1  0  0  0  0
 25 24  1  0  0  0  0
 26 59  1  0  0  0  0
 26 60  1  0  0  0  0
 27 26  1  0  0  0  0
 28 27  1  0  0  0  0
 28 30  2  0  0  0  0
 28 31  1  0  0  0  0
 29 28  2  0  0  0  0
 31 36  1  0  0  0  0
 32 31  2  0  0  0  0
 32 33  1  0  0  0  0
 33 34  2  0  0  0  0
 34 35  1  0  0  0  0
 34 64  1  0  0  0  0
 35 65  1  0  0  0  0
 36 66  1  0  0  0  0
 36 35  2  0  0  0  0
 39  2  1  0  0  0  0
 42  7  1  0  0  0  0
 43  8  1  0  0  0  0
 44 10  1  0  0  0  0
 45 10  1  0  0  0  0
 46 11  1  0  0  0  0
 48 12  1  0  0  0  0
 49 12  1  0  0  0  0
 53 20  1  0  0  0  0
 54 20  1  0  0  0  0
 55 23  1  0  0  0  0
 58 25  1  0  0  0  0
 61 27  1  0  0  0  0
 62 32  1  0  0  0  0
 63 33  1  0  0  0  0
M  END
