omegapdb_1xom_13.xyz
 OpenBabel11041815263D

 50 52  0  0  1  0  0  0  0  0999 V2000
    5.9382    2.4267    0.3554 O   0  0  0  0  0  0  0  0  0  0  0  0
    5.1103    1.8330   -0.5384 C   0  0  0  0  0  0  0  0  0  0  0  0
    5.4741    1.5008   -1.6437 O   0  0  0  0  0  0  0  0  0  0  0  0
    3.7394    1.6279    0.0494 C   0  0  1  0  0  0  0  0  0  0  0  0
    2.7515    1.1200   -1.0051 C   0  0  0  0  0  0  0  0  0  0  0  0
    2.7918   -0.4010   -1.0944 C   0  0  0  0  0  0  0  0  0  0  0  0
    2.3052   -1.0664    0.2240 C   0  0  2  0  0  0  0  0  0  0  0  0
    2.5307   -0.0913    1.4125 C   0  0  0  0  0  0  0  0  0  0  0  0
    3.8480    0.6493    1.2435 C   0  0  0  0  0  0  0  0  0  0  0  0
    3.1356   -2.2474    0.4669 C   0  0  0  0  0  0  0  0  0  0  0  0
    3.8261   -3.1703    0.6850 N   0  0  0  0  0  0  0  0  0  0  0  0
    0.8439   -1.4788    0.1998 C   0  0  0  0  0  0  0  0  0  0  0  0
    0.3788   -2.5019    1.0245 C   0  0  0  0  0  0  0  0  0  0  0  0
   -0.9764   -2.8303    1.0700 C   0  0  0  0  0  0  0  0  0  0  0  0
   -1.9002   -2.1329    0.2909 C   0  0  0  0  0  0  0  0  0  0  0  0
   -3.2336   -2.3902    0.2465 O   0  0  0  0  0  0  0  0  0  0  0  0
   -3.6857   -3.4827    1.0316 C   0  0  0  0  0  0  0  0  0  0  0  0
   -1.4403   -1.0890   -0.5349 C   0  0  0  0  0  0  0  0  0  0  0  0
   -0.0870   -0.7798   -0.5750 C   0  0  0  0  0  0  0  0  0  0  0  0
   -2.3038   -0.4083   -1.3512 O   0  0  0  0  0  0  0  0  0  0  0  0
   -3.1652    0.4883   -0.6386 C   0  0  0  0  0  0  0  0  0  0  0  0
   -4.1390    1.1361   -1.6028 C   0  0  0  0  0  0  0  0  0  0  0  0
   -4.7114    2.2869   -0.7716 C   0  0  0  0  0  0  0  0  0  0  0  0
   -3.5518    2.7323    0.1608 C   0  0  0  0  0  0  0  0  0  0  0  0
   -2.4394    1.6820   -0.0245 C   0  0  0  0  0  0  0  0  0  0  0  0
    6.7988    2.4853   -0.0869 H   0  0  0  0  0  0  0  0  0  0  0  0
    3.4089    2.5951    0.4319 H   0  0  0  0  0  0  0  0  0  0  0  0
    1.7489    1.4599   -0.7459 H   0  0  0  0  0  0  0  0  0  0  0  0
    3.0016    1.5495   -1.9739 H   0  0  0  0  0  0  0  0  0  0  0  0
    2.1920   -0.7718   -1.9246 H   0  0  0  0  0  0  0  0  0  0  0  0
    3.8205   -0.7027   -1.2929 H   0  0  0  0  0  0  0  0  0  0  0  0
    1.6962    0.6128    1.4349 H   0  0  0  0  0  0  0  0  0  0  0  0
    2.5006   -0.6572    2.3438 H   0  0  0  0  0  0  0  0  0  0  0  0
    4.6425   -0.0803    1.0665 H   0  0  0  0  0  0  0  0  0  0  0  0
    4.1198    1.1931    2.1459 H   0  0  0  0  0  0  0  0  0  0  0  0
    1.0770   -3.0704    1.6254 H   0  0  0  0  0  0  0  0  0  0  0  0
   -1.2965   -3.6430    1.7037 H   0  0  0  0  0  0  0  0  0  0  0  0
   -3.2036   -4.4122    0.7258 H   0  0  0  0  0  0  0  0  0  0  0  0
   -3.5023   -3.3106    2.0932 H   0  0  0  0  0  0  0  0  0  0  0  0
   -4.7534   -3.5525    0.8547 H   0  0  0  0  0  0  0  0  0  0  0  0
    0.2077    0.0152   -1.2451 H   0  0  0  0  0  0  0  0  0  0  0  0
   -3.7086   -0.0696    0.1289 H   0  0  0  0  0  0  0  0  0  0  0  0
   -3.5676    1.5112   -2.4541 H   0  0  0  0  0  0  0  0  0  0  0  0
   -4.8924    0.4442   -1.9728 H   0  0  0  0  0  0  0  0  0  0  0  0
   -5.5502    1.9276   -0.1763 H   0  0  0  0  0  0  0  0  0  0  0  0
   -5.0836    3.1002   -1.3904 H   0  0  0  0  0  0  0  0  0  0  0  0
   -3.1930    3.7279   -0.0913 H   0  0  0  0  0  0  0  0  0  0  0  0
   -3.8862    2.7697    1.1959 H   0  0  0  0  0  0  0  0  0  0  0  0
   -1.6998    2.0256   -0.7508 H   0  0  0  0  0  0  0  0  0  0  0  0
   -1.9171    1.4398    0.8993 H   0  0  0  0  0  0  0  0  0  0  0  0
  2  4  1  0  0  0  0
  2  1  1  0  0  0  0
  3  2  2  0  0  0  0
  4 27  1  1  0  0  0
  4  9  1  0  0  0  0
  5 28  1  0  0  0  0
  5  4  1  0  0  0  0
  6  5  1  0  0  0  0
  6  7  1  0  0  0  0
  7 12  1  6  0  0  0
  7 10  1  0  0  0  0
  7  8  1  0  0  0  0
  8 32  1  0  0  0  0
  8 33  1  0  0  0  0
  9  8  1  0  0  0  0
  9 35  1  0  0  0  0
 10 11  3  0  0  0  0
 12 13  2  0  0  0  0
 13 14  1  0  0  0  0
 13 36  1  0  0  0  0
 14 37  1  0  0  0  0
 15 14  2  0  0  0  0
 16 15  1  0  0  0  0
 16 17  1  0  0  0  0
 17 39  1  0  0  0  0
 18 15  1  0  0  0  0
 19 18  2  0  0  0  0
 19 12  1  0  0  0  0
 20 21  1  0  0  0  0
 20 18  1  0  0  0  0
 21 25  1  0  0  0  0
 21 42  1  0  0  0  0
 22 23  1  0  0  0  0
 22 21  1  0  0  0  0
 23 45  1  0  0  0  0
 23 24  1  0  0  0  0
 24 48  1  0  0  0  0
 25 24  1  0  0  0  0
 25 50  1  0  0  0  0
 26  1  1  0  0  0  0
 29  5  1  0  0  0  0
 30  6  1  0  0  0  0
 31  6  1  0  0  0  0
 34  9  1  0  0  0  0
 38 17  1  0  0  0  0
 40 17  1  0  0  0  0
 41 19  1  0  0  0  0
 43 22  1  0  0  0  0
 44 22  1  0  0  0  0
 46 23  1  0  0  0  0
 47 24  1  0  0  0  0
 49 25  1  0  0  0  0
M  END
