omegapdb_1qxw_04.xyz
 OpenBabel11041815263D

 36 36  0  0  1  0  0  0  0  0999 V2000
    4.4108    1.3656   -0.7366 C   0  0  0  0  0  0  0  0  0  0  0  0
    5.1257    1.0050    0.5486 C   0  0  0  0  0  0  0  0  0  0  0  0
    3.6437    1.1836    0.5511 C   0  0  0  0  0  0  0  0  0  0  0  0
    2.8035    0.0389    0.7628 N   0  0  0  0  0  0  0  0  0  0  0  0
    1.5665    0.0900   -0.0106 C   0  0  0  0  0  0  0  0  0  0  0  0
    0.7304   -1.1062    0.4114 C   0  0  0  0  0  0  0  0  0  0  0  0
   -0.6484   -1.2089   -0.2454 C   0  0  1  0  0  0  0  0  0  0  0  0
   -1.1639   -2.5237    0.1546 N   0  0  0  0  0  0  0  0  0  0  0  0
   -1.5635   -0.0336    0.0783 C   0  0  0  0  0  0  0  0  0  0  0  0
   -2.9243   -0.1251   -0.6000 C   0  0  0  0  0  0  0  0  0  0  0  0
   -3.7972    1.0945   -0.3326 C   0  0  0  0  0  0  0  0  0  0  0  0
   -5.1633    0.9901   -0.9972 C   0  0  0  0  0  0  0  0  0  0  0  0
    0.5069   -1.0586    1.8042 O   0  0  0  0  0  0  0  0  0  0  0  0
    1.4896   -2.2398    0.0528 O   0  0  0  0  0  0  0  0  0  0  0  0
    4.3109    0.5822   -1.4736 H   0  0  0  0  0  0  0  0  0  0  0  0
    4.5421    2.3615   -1.1314 H   0  0  0  0  0  0  0  0  0  0  0  0
    5.4968   -0.0055    0.6386 H   0  0  0  0  0  0  0  0  0  0  0  0
    5.7345    1.7569    1.0253 H   0  0  0  0  0  0  0  0  0  0  0  0
    3.2615    2.0825    1.0161 H   0  0  0  0  0  0  0  0  0  0  0  0
    3.2995   -0.8099    0.5105 H   0  0  0  0  0  0  0  0  0  0  0  0
    1.0483    1.0121    0.2478 H   0  0  0  0  0  0  0  0  0  0  0  0
    1.7292    0.0679   -1.0942 H   0  0  0  0  0  0  0  0  0  0  0  0
   -0.4767   -1.2496   -1.3240 H   0  0  0  0  0  0  0  0  0  0  0  0
   -1.9807   -2.7695   -0.3878 H   0  0  0  0  0  0  0  0  0  0  0  0
   -1.4448   -2.4839    1.1284 H   0  0  0  0  0  0  0  0  0  0  0  0
   -1.0815    0.8950   -0.2372 H   0  0  0  0  0  0  0  0  0  0  0  0
   -1.6846    0.0257    1.1618 H   0  0  0  0  0  0  0  0  0  0  0  0
   -2.7886   -0.2402   -1.6802 H   0  0  0  0  0  0  0  0  0  0  0  0
   -3.4542   -1.0166   -0.2554 H   0  0  0  0  0  0  0  0  0  0  0  0
   -3.9180    1.2158    0.7461 H   0  0  0  0  0  0  0  0  0  0  0  0
   -3.2808    1.9891   -0.6874 H   0  0  0  0  0  0  0  0  0  0  0  0
   -5.7752    1.8686   -0.7993 H   0  0  0  0  0  0  0  0  0  0  0  0
   -5.7048    0.1169   -0.6337 H   0  0  0  0  0  0  0  0  0  0  0  0
   -5.0615    0.8899   -2.0777 H   0  0  0  0  0  0  0  0  0  0  0  0
    1.3673   -0.7950    2.1680 H   0  0  0  0  0  0  0  0  0  0  0  0
    0.8443   -2.9658    0.1055 H   0  0  0  0  0  0  0  0  0  0  0  0
  1  2  1  0  0  0  0
  1  3  1  0  0  0  0
  2  3  1  0  0  0  0
  2 17  1  0  0  0  0
  2 18  1  0  0  0  0
  3  4  1  0  0  0  0
  3 19  1  0  0  0  0
  5 21  1  0  0  0  0
  5  6  1  0  0  0  0
  5  4  1  0  0  0  0
  6 13  1  0  0  0  0
  7 23  1  6  0  0  0
  7  9  1  0  0  0  0
  7  8  1  0  0  0  0
  7  6  1  0  0  0  0
  8 25  1  0  0  0  0
  9 27  1  0  0  0  0
 10 11  1  0  0  0  0
 10 29  1  0  0  0  0
 10  9  1  0  0  0  0
 11 30  1  0  0  0  0
 12 32  1  0  0  0  0
 12 33  1  0  0  0  0
 12 11  1  0  0  0  0
 13 35  1  0  0  0  0
 14 36  1  0  0  0  0
 14  6  1  0  0  0  0
 15  1  1  0  0  0  0
 16  1  1  0  0  0  0
 20  4  1  0  0  0  0
 22  5  1  0  0  0  0
 24  8  1  0  0  0  0
 26  9  1  0  0  0  0
 28 10  1  0  0  0  0
 31 11  1  0  0  0  0
 34 12  1  0  0  0  0
M  END
