omegapdb_1z1r_08.xyz
 OpenBabel11041815263D

 66 68  0  0  1  0  0  0  0  0999 V2000
    0.7135   -1.1113    1.6613 C   0  0  2  0  0  0  0  0  0  0  0  0
    1.1336   -2.2607    0.7277 C   0  0  0  0  0  0  0  0  0  0  0  0
   -0.0687   -2.8505    0.0474 C   0  0  0  0  0  0  0  0  0  0  0  0
   -0.3498   -2.5563   -1.2923 C   0  0  0  0  0  0  0  0  0  0  0  0
   -1.5648   -2.9190   -1.8720 C   0  0  0  0  0  0  0  0  0  0  0  0
   -2.5308   -3.5650   -1.0997 C   0  0  0  0  0  0  0  0  0  0  0  0
   -2.2363   -3.9290    0.2155 C   0  0  0  0  0  0  0  0  0  0  0  0
   -1.0173   -3.5714    0.7811 C   0  0  0  0  0  0  0  0  0  0  0  0
   -3.7692   -3.8657   -1.5971 O   0  0  0  0  0  0  0  0  0  0  0  0
   -4.5651   -2.7154   -1.9416 C   0  0  0  0  0  0  0  0  0  0  0  0
   -4.9105   -1.8363   -0.7465 C   0  0  0  0  0  0  0  0  0  0  0  0
   -3.8465   -0.8044   -0.3947 C   0  0  0  0  0  0  0  0  0  0  0  0
   -4.2001   -0.0366    0.8620 C   0  0  0  0  0  0  0  0  0  0  0  0
   -5.1838   -0.2925    1.5410 O   0  0  0  0  0  0  0  0  0  0  0  0
   -3.3516    0.9879    1.2082 N   0  0  0  0  0  0  0  0  0  0  0  0
   -2.0617    1.2758    0.6204 C   0  0  2  0  0  0  0  0  0  0  0  0
   -0.9583    0.7138    1.5014 C   0  0  0  0  0  0  0  0  0  0  0  0
   -0.7724    1.1437    2.6437 O   0  0  0  0  0  0  0  0  0  0  0  0
   -0.2290   -0.2674    0.9354 N   0  0  0  0  0  0  0  0  0  0  0  0
   -1.8865    2.7746    0.4379 C   0  0  0  0  0  0  0  0  0  0  0  0
   -2.8453    3.2508   -0.6386 C   0  0  0  0  0  0  0  0  0  0  0  0
   -3.1113    2.5616   -1.6144 O   0  0  0  0  0  0  0  0  0  0  0  0
   -3.3548    4.4918   -0.4522 N   0  0  0  0  0  0  0  0  0  0  0  0
    1.9269   -0.3367    2.1965 C   0  0  2  0  0  0  0  0  0  0  0  0
    1.6872    0.2419    3.4646 O   0  0  0  0  0  0  0  0  0  0  0  0
    2.3932    0.7271    1.2151 C   0  0  0  0  0  0  0  0  0  0  0  0
    3.6025    1.3355    1.7670 N   0  0  0  0  0  0  0  0  0  0  0  0
    4.1433    2.6807    0.9532 S   0  0  0  0  0  0  0  0  0  0  0  0
    5.1290    3.2984    1.8152 O   0  0  0  0  0  0  0  0  0  0  0  0
    3.0355    3.4564    0.4182 O   0  0  0  0  0  0  0  0  0  0  0  0
    4.9474    1.8985   -0.4190 C   0  0  0  0  0  0  0  0  0  0  0  0
    6.1234    1.1865   -0.1888 C   0  0  0  0  0  0  0  0  0  0  0  0
    6.7540    0.5713   -1.2649 C   0  0  0  0  0  0  0  0  0  0  0  0
    6.2114    0.6694   -2.5474 C   0  0  0  0  0  0  0  0  0  0  0  0
    5.0366    1.3877   -2.7598 C   0  0  0  0  0  0  0  0  0  0  0  0
    4.3933    2.0096   -1.6909 C   0  0  0  0  0  0  0  0  0  0  0  0
    0.2002   -1.5303    2.5319 H   0  0  0  0  0  0  0  0  0  0  0  0
    1.6561   -3.0034    1.3312 H   0  0  0  0  0  0  0  0  0  0  0  0
    1.8377   -1.8867   -0.0187 H   0  0  0  0  0  0  0  0  0  0  0  0
    0.3904   -2.0341   -1.8882 H   0  0  0  0  0  0  0  0  0  0  0  0
   -1.7744   -2.6794   -2.9057 H   0  0  0  0  0  0  0  0  0  0  0  0
   -2.9869   -4.4576    0.7869 H   0  0  0  0  0  0  0  0  0  0  0  0
   -0.8152   -3.8249    1.8150 H   0  0  0  0  0  0  0  0  0  0  0  0
   -4.0658   -2.1371   -2.7244 H   0  0  0  0  0  0  0  0  0  0  0  0
   -5.4687   -3.1469   -2.3645 H   0  0  0  0  0  0  0  0  0  0  0  0
   -5.1183   -2.4715    0.1142 H   0  0  0  0  0  0  0  0  0  0  0  0
   -5.8415   -1.3115   -0.9652 H   0  0  0  0  0  0  0  0  0  0  0  0
   -2.8825   -1.2880   -0.2277 H   0  0  0  0  0  0  0  0  0  0  0  0
   -3.7087   -0.0998   -1.2189 H   0  0  0  0  0  0  0  0  0  0  0  0
   -3.5308    1.3742    2.1258 H   0  0  0  0  0  0  0  0  0  0  0  0
   -2.0313    0.8270   -0.3684 H   0  0  0  0  0  0  0  0  0  0  0  0
   -0.5538   -0.6200    0.0456 H   0  0  0  0  0  0  0  0  0  0  0  0
   -2.0334    3.2870    1.3886 H   0  0  0  0  0  0  0  0  0  0  0  0
   -0.8689    2.9920    0.1033 H   0  0  0  0  0  0  0  0  0  0  0  0
   -3.1288    5.0394    0.3555 H   0  0  0  0  0  0  0  0  0  0  0  0
   -3.9635    4.8728   -1.1549 H   0  0  0  0  0  0  0  0  0  0  0  0
    2.7357   -1.0547    2.3478 H   0  0  0  0  0  0  0  0  0  0  0  0
    0.8142    0.6756    3.3946 H   0  0  0  0  0  0  0  0  0  0  0  0
    1.6047    1.4680    1.0735 H   0  0  0  0  0  0  0  0  0  0  0  0
    2.6342    0.2890    0.2441 H   0  0  0  0  0  0  0  0  0  0  0  0
    3.4646    1.5862    2.7461 H   0  0  0  0  0  0  0  0  0  0  0  0
    6.5286    1.1286    0.8115 H   0  0  0  0  0  0  0  0  0  0  0  0
    7.6692    0.0181   -1.1059 H   0  0  0  0  0  0  0  0  0  0  0  0
    6.7082    0.1904   -3.3798 H   0  0  0  0  0  0  0  0  0  0  0  0
    4.6230    1.4679   -3.7556 H   0  0  0  0  0  0  0  0  0  0  0  0
    3.4882    2.5844   -1.8253 H   0  0  0  0  0  0  0  0  0  0  0  0
  1 24  1  0  0  0  0
  1 37  1  1  0  0  0
  2 38  1  0  0  0  0
  2  1  1  0  0  0  0
  3  2  1  0  0  0  0
  3  8  2  0  0  0  0
  4  3  1  0  0  0  0
  5  4  2  0  0  0  0
  5  6  1  0  0  0  0
  6  7  2  0  0  0  0
  7  8  1  0  0  0  0
  7 42  1  0  0  0  0
  8 43  1  0  0  0  0
  9  6  1  0  0  0  0
 10  9  1  0  0  0  0
 10 11  1  0  0  0  0
 11 12  1  0  0  0  0
 11 46  1  0  0  0  0
 12 48  1  0  0  0  0
 12 13  1  0  0  0  0
 13 15  1  0  0  0  0
 13 14  2  0  0  0  0
 15 50  1  0  0  0  0
 16 51  1  6  0  0  0
 16 15  1  0  0  0  0
 16 17  1  0  0  0  0
 17 18  2  0  0  0  0
 19 17  1  0  0  0  0
 19  1  1  0  0  0  0
 20 16  1  0  0  0  0
 20 53  1  0  0  0  0
 21 23  1  0  0  0  0
 21 20  1  0  0  0  0
 22 21  2  0  0  0  0
 23 55  1  0  0  0  0
 24 57  1  1  0  0  0
 24 25  1  0  0  0  0
 26 27  1  0  0  0  0
 26 24  1  0  0  0  0
 27 61  1  0  0  0  0
 28 27  1  0  0  0  0
 28 29  2  0  0  0  0
 30 28  2  0  0  0  0
 31 32  1  0  0  0  0
 31 28  1  0  0  0  0
 32 62  1  0  0  0  0
 33 63  1  0  0  0  0
 33 32  2  0  0  0  0
 34 33  1  0  0  0  0
 35 34  2  0  0  0  0
 35 36  1  0  0  0  0
 36 31  2  0  0  0  0
 39  2  1  0  0  0  0
 40  4  1  0  0  0  0
 41  5  1  0  0  0  0
 44 10  1  0  0  0  0
 45 10  1  0  0  0  0
 47 11  1  0  0  0  0
 49 12  1  0  0  0  0
 52 19  1  0  0  0  0
 54 20  1  0  0  0  0
 56 23  1  0  0  0  0
 58 25  1  0  0  0  0
 59 26  1  0  0  0  0
 60 26  1  0  0  0  0
 64 34  1  0  0  0  0
 65 35  1  0  0  0  0
 66 36  1  0  0  0  0
M  END
