omegapdb_2byh_05.xyz
 OpenBabel11041815263D

 40 42  0  0  0  0  0  0  0  0999 V2000
    5.8522    3.0696    1.4429 O   0  0  0  0  0  0  0  0  0  0  0  0
    5.5470    2.0246    1.9981 C   0  0  0  0  0  0  0  0  0  0  0  0
    6.3651    1.4872    3.1478 C   0  0  0  0  0  0  0  0  0  0  0  0
    4.3548    1.2451    1.5593 C   0  0  0  0  0  0  0  0  0  0  0  0
    3.9727    0.0471    2.1727 C   0  0  0  0  0  0  0  0  0  0  0  0
    2.8547   -0.6409    1.7263 C   0  0  0  0  0  0  0  0  0  0  0  0
    2.0906   -0.1499    0.6602 C   0  0  0  0  0  0  0  0  0  0  0  0
    2.4664    1.0502    0.0404 C   0  0  0  0  0  0  0  0  0  0  0  0
    3.5888    1.7283    0.4955 C   0  0  0  0  0  0  0  0  0  0  0  0
    0.9835   -0.9110    0.2690 N   0  0  0  0  0  0  0  0  0  0  0  0
    0.0463   -0.6348   -0.7000 C   0  0  0  0  0  0  0  0  0  0  0  0
    0.0417    0.3974   -1.3606 O   0  0  0  0  0  0  0  0  0  0  0  0
   -0.9128   -1.7488   -0.8611 C   0  0  0  0  0  0  0  0  0  0  0  0
   -0.5664   -3.1119   -0.7961 C   0  0  0  0  0  0  0  0  0  0  0  0
   -1.6321   -3.9107   -0.9594 N   0  0  0  0  0  0  0  0  0  0  0  0
   -2.6428   -3.0584   -1.1175 N   0  0  0  0  0  0  0  0  0  0  0  0
   -2.3011   -1.7399   -1.0786 C   0  0  0  0  0  0  0  0  0  0  0  0
   -3.2981   -0.6825   -1.2254 C   0  0  0  0  0  0  0  0  0  0  0  0
   -2.9215    0.5898   -1.6731 C   0  0  0  0  0  0  0  0  0  0  0  0
   -3.8548    1.6046   -1.7964 C   0  0  0  0  0  0  0  0  0  0  0  0
   -3.3795    3.1800   -2.3481 Cl  0  0  0  0  0  0  0  0  0  0  0  0
   -5.2019    1.3954   -1.4948 C   0  0  0  0  0  0  0  0  0  0  0  0
   -6.1464    2.3585   -1.6059 O   0  0  0  0  0  0  0  0  0  0  0  0
   -5.5884    0.1303   -1.0670 C   0  0  0  0  0  0  0  0  0  0  0  0
   -4.6587   -0.8917   -0.9354 C   0  0  0  0  0  0  0  0  0  0  0  0
   -5.0528   -2.1415   -0.5141 O   0  0  0  0  0  0  0  0  0  0  0  0
    6.7553    0.4979    2.9111 H   0  0  0  0  0  0  0  0  0  0  0  0
    5.7524    1.3947    4.0440 H   0  0  0  0  0  0  0  0  0  0  0  0
    7.1881    2.1685    3.3372 H   0  0  0  0  0  0  0  0  0  0  0  0
    4.5417   -0.3564    2.9980 H   0  0  0  0  0  0  0  0  0  0  0  0
    2.5663   -1.5686    2.2058 H   0  0  0  0  0  0  0  0  0  0  0  0
    1.8785    1.4337   -0.7756 H   0  0  0  0  0  0  0  0  0  0  0  0
    3.8912    2.6547    0.0277 H   0  0  0  0  0  0  0  0  0  0  0  0
    0.8093   -1.7435    0.8095 H   0  0  0  0  0  0  0  0  0  0  0  0
    0.4129   -3.5465   -0.6820 H   0  0  0  0  0  0  0  0  0  0  0  0
   -3.5873   -3.4037   -1.1862 H   0  0  0  0  0  0  0  0  0  0  0  0
   -1.8857    0.7741   -1.9175 H   0  0  0  0  0  0  0  0  0  0  0  0
   -5.6989    3.1586   -1.9187 H   0  0  0  0  0  0  0  0  0  0  0  0
   -6.6333   -0.0398   -0.8395 H   0  0  0  0  0  0  0  0  0  0  0  0
   -5.9975   -2.1101   -0.3267 H   0  0  0  0  0  0  0  0  0  0  0  0
  1  2  2  0  0  0  0
  2  3  1  0  0  0  0
  3 29  1  0  0  0  0
  3 28  1  0  0  0  0
  4  2  1  0  0  0  0
  4  5  2  0  0  0  0
  5 30  1  0  0  0  0
  6  5  1  0  0  0  0
  6 31  1  0  0  0  0
  7  6  2  0  0  0  0
  8  9  2  0  0  0  0
  8  7  1  0  0  0  0
  9  4  1  0  0  0  0
 10  7  1  0  0  0  0
 10 34  1  0  0  0  0
 11 10  1  0  0  0  0
 12 11  2  0  0  0  0
 13 14  1  0  0  0  0
 13 11  1  0  0  0  0
 14 35  1  0  0  0  0
 15 14  2  0  0  0  0
 16 17  1  0  0  0  0
 16 15  1  0  0  0  0
 17 13  2  0  0  0  0
 18 17  1  0  0  0  0
 18 25  2  0  0  0  0
 19 18  1  0  0  0  0
 20 19  2  0  0  0  0
 20 22  1  0  0  0  0
 21 20  1  0  0  0  0
 22 24  2  0  0  0  0
 23 22  1  0  0  0  0
 24 25  1  0  0  0  0
 24 39  1  0  0  0  0
 25 26  1  0  0  0  0
 26 40  1  0  0  0  0
 27  3  1  0  0  0  0
 32  8  1  0  0  0  0
 33  9  1  0  0  0  0
 36 16  1  0  0  0  0
 37 19  1  0  0  0  0
 38 23  1  0  0  0  0
M  END
