omegapdb_1qxw_26.xyz
 OpenBabel11041815263D

 36 36  0  0  1  0  0  0  0  0999 V2000
    4.7217    1.4671    0.0006 C   0  0  0  0  0  0  0  0  0  0  0  0
    4.7401    0.0488   -0.5292 C   0  0  0  0  0  0  0  0  0  0  0  0
    3.8660    0.4252    0.6403 C   0  0  0  0  0  0  0  0  0  0  0  0
    2.4352    0.5149    0.5069 N   0  0  0  0  0  0  0  0  0  0  0  0
    1.7899   -0.7943    0.4210 C   0  0  0  0  0  0  0  0  0  0  0  0
    0.2798   -0.6479    0.6362 C   0  0  0  0  0  0  0  0  0  0  0  0
   -0.4331   -0.0822   -0.6092 C   0  0  1  0  0  0  0  0  0  0  0  0
   -0.5409   -1.0442   -1.7053 N   0  0  0  0  0  0  0  0  0  0  0  0
   -1.8062    0.5184   -0.3079 C   0  0  0  0  0  0  0  0  0  0  0  0
   -2.8711   -0.4614    0.1713 C   0  0  0  0  0  0  0  0  0  0  0  0
   -4.2375    0.2004    0.3439 C   0  0  0  0  0  0  0  0  0  0  0  0
   -4.8656    0.6615   -0.9666 C   0  0  0  0  0  0  0  0  0  0  0  0
   -0.2788   -1.9164    0.8989 O   0  0  0  0  0  0  0  0  0  0  0  0
    0.0804    0.1668    1.7696 O   0  0  0  0  0  0  0  0  0  0  0  0
    5.5838    1.8246    0.5407 H   0  0  0  0  0  0  0  0  0  0  0  0
    4.2230    2.2126   -0.6017 H   0  0  0  0  0  0  0  0  0  0  0  0
    5.6189   -0.5518   -0.3520 H   0  0  0  0  0  0  0  0  0  0  0  0
    4.2433   -0.1258   -1.4725 H   0  0  0  0  0  0  0  0  0  0  0  0
    4.1727    0.0659    1.6131 H   0  0  0  0  0  0  0  0  0  0  0  0
    2.2165    1.0610   -0.3199 H   0  0  0  0  0  0  0  0  0  0  0  0
    1.9940   -1.3317   -0.5105 H   0  0  0  0  0  0  0  0  0  0  0  0
    2.1762   -1.4029    1.2401 H   0  0  0  0  0  0  0  0  0  0  0  0
    0.1862    0.7450   -0.9716 H   0  0  0  0  0  0  0  0  0  0  0  0
   -0.9324   -1.9034   -1.3367 H   0  0  0  0  0  0  0  0  0  0  0  0
    0.3794   -1.2898   -2.0491 H   0  0  0  0  0  0  0  0  0  0  0  0
   -1.6883    1.3046    0.4383 H   0  0  0  0  0  0  0  0  0  0  0  0
   -2.1344    0.9861   -1.2367 H   0  0  0  0  0  0  0  0  0  0  0  0
   -2.5585   -0.8980    1.1179 H   0  0  0  0  0  0  0  0  0  0  0  0
   -2.9674   -1.2845   -0.5415 H   0  0  0  0  0  0  0  0  0  0  0  0
   -4.9116   -0.5073    0.8299 H   0  0  0  0  0  0  0  0  0  0  0  0
   -4.1398    1.0495    1.0250 H   0  0  0  0  0  0  0  0  0  0  0  0
   -5.8669    1.0586   -0.8053 H   0  0  0  0  0  0  0  0  0  0  0  0
   -4.2769    1.4417   -1.4452 H   0  0  0  0  0  0  0  0  0  0  0  0
   -4.9439   -0.1705   -1.6671 H   0  0  0  0  0  0  0  0  0  0  0  0
   -0.1305   -2.0668    1.8403 H   0  0  0  0  0  0  0  0  0  0  0  0
    0.8769    0.7259    1.8012 H   0  0  0  0  0  0  0  0  0  0  0  0
  1 15  1  0  0  0  0
  1  3  1  0  0  0  0
  2 17  1  0  0  0  0
  2  1  1  0  0  0  0
  2  3  1  0  0  0  0
  3 19  1  0  0  0  0
  4  3  1  0  0  0  0
  5  4  1  0  0  0  0
  5  6  1  0  0  0  0
  5 22  1  0  0  0  0
  6 13  1  0  0  0  0
  6 14  1  0  0  0  0
  7 23  1  6  0  0  0
  7  9  1  0  0  0  0
  7  6  1  0  0  0  0
  8 24  1  0  0  0  0
  8  7  1  0  0  0  0
  9 10  1  0  0  0  0
  9 26  1  0  0  0  0
 10 11  1  0  0  0  0
 10 28  1  0  0  0  0
 11 30  1  0  0  0  0
 11 31  1  0  0  0  0
 12 32  1  0  0  0  0
 12 11  1  0  0  0  0
 13 35  1  0  0  0  0
 14 36  1  0  0  0  0
 16  1  1  0  0  0  0
 18  2  1  0  0  0  0
 20  4  1  0  0  0  0
 21  5  1  0  0  0  0
 25  8  1  0  0  0  0
 27  9  1  0  0  0  0
 29 10  1  0  0  0  0
 33 12  1  0  0  0  0
 34 12  1  0  0  0  0
M  END
