omegapdb_1gs5_17.xyz
 OpenBabel11041815263D

 24 23  0  0  1  0  0  0  0  0999 V2000
   -0.0469    0.0804   -0.1174 C   0  0  2  0  0  0  0  0  0  0  0  0
   -0.6115   -1.3252   -0.2295 C   0  0  0  0  0  0  0  0  0  0  0  0
   -1.6854   -1.6770    0.1965 O   0  0  0  0  0  0  0  0  0  0  0  0
    0.2696   -2.1672   -0.8168 O   0  0  0  0  0  0  0  0  0  0  0  0
    0.6706    0.2535    1.2210 C   0  0  0  0  0  0  0  0  0  0  0  0
    1.8698   -0.6636    1.3993 C   0  0  0  0  0  0  0  0  0  0  0  0
    2.9932   -0.3253    0.4403 C   0  0  0  0  0  0  0  0  0  0  0  0
    3.0711    0.7051   -0.1770 O   0  0  0  0  0  0  0  0  0  0  0  0
    3.9693   -1.2615    0.3370 O   0  0  0  0  0  0  0  0  0  0  0  0
   -1.1099    1.0507   -0.2077 N   0  0  0  0  0  0  0  0  0  0  0  0
   -1.8790    1.0596   -1.3431 C   0  0  0  0  0  0  0  0  0  0  0  0
   -1.5613    0.4106   -2.3287 O   0  0  0  0  0  0  0  0  0  0  0  0
   -3.1192    1.9121   -1.2779 C   0  0  0  0  0  0  0  0  0  0  0  0
    0.6479    0.2399   -0.9382 H   0  0  0  0  0  0  0  0  0  0  0  0
   -0.1754   -3.0285   -0.8496 H   0  0  0  0  0  0  0  0  0  0  0  0
   -0.0449    0.0736    2.0263 H   0  0  0  0  0  0  0  0  0  0  0  0
    1.0042    1.2886    1.2809 H   0  0  0  0  0  0  0  0  0  0  0  0
    2.2703   -0.5521    2.4095 H   0  0  0  0  0  0  0  0  0  0  0  0
    1.5928   -1.7114    1.2822 H   0  0  0  0  0  0  0  0  0  0  0  0
    3.7234   -2.0304    0.8636 H   0  0  0  0  0  0  0  0  0  0  0  0
   -1.5426    1.3504    0.6507 H   0  0  0  0  0  0  0  0  0  0  0  0
   -3.9677    1.2680   -1.0508 H   0  0  0  0  0  0  0  0  0  0  0  0
   -3.2866    2.3619   -2.2513 H   0  0  0  0  0  0  0  0  0  0  0  0
   -3.0517    2.6882   -0.5195 H   0  0  0  0  0  0  0  0  0  0  0  0
  1 14  1  6  0  0  0
  1  5  1  0  0  0  0
  2  1  1  0  0  0  0
  2  3  2  0  0  0  0
  4  2  1  0  0  0  0
  5 17  1  0  0  0  0
  5  6  1  0  0  0  0
  5 16  1  0  0  0  0
  6 18  1  0  0  0  0
  7  6  1  0  0  0  0
  8  7  2  0  0  0  0
  9  7  1  0  0  0  0
  9 20  1  0  0  0  0
 10  1  1  0  0  0  0
 10 21  1  0  0  0  0
 11 13  1  0  0  0  0
 11 10  1  0  0  0  0
 12 11  2  0  0  0  0
 13 22  1  0  0  0  0
 13 24  1  0  0  0  0
 15  4  1  0  0  0  0
 19  6  1  0  0  0  0
 23 13  1  0  0  0  0
M  END
