omegapdb_1z1r_04.xyz
 OpenBabel11041815263D

 66 68  0  0  1  0  0  0  0  0999 V2000
    0.6590   -0.5715   -1.5208 C   0  0  2  0  0  0  0  0  0  0  0  0
    0.1132   -1.5152   -2.6025 C   0  0  0  0  0  0  0  0  0  0  0  0
   -1.1186   -2.2103   -2.0883 C   0  0  0  0  0  0  0  0  0  0  0  0
   -1.0969   -2.9137   -0.8793 C   0  0  0  0  0  0  0  0  0  0  0  0
   -2.2663   -3.3854   -0.2873 C   0  0  0  0  0  0  0  0  0  0  0  0
   -3.4993   -3.1607   -0.9100 C   0  0  0  0  0  0  0  0  0  0  0  0
   -3.5294   -2.5092   -2.1448 C   0  0  0  0  0  0  0  0  0  0  0  0
   -2.3534   -2.0345   -2.7173 C   0  0  0  0  0  0  0  0  0  0  0  0
   -4.7036   -3.5652   -0.4117 O   0  0  0  0  0  0  0  0  0  0  0  0
   -4.8968   -3.5117    1.0096 C   0  0  0  0  0  0  0  0  0  0  0  0
   -5.3760   -2.1382    1.4490 C   0  0  0  0  0  0  0  0  0  0  0  0
   -4.3430   -1.0306    1.2815 C   0  0  0  0  0  0  0  0  0  0  0  0
   -3.2005   -1.1696    2.2703 C   0  0  0  0  0  0  0  0  0  0  0  0
   -3.1927   -2.0378    3.1353 O   0  0  0  0  0  0  0  0  0  0  0  0
   -2.1999   -0.2331    2.2138 N   0  0  0  0  0  0  0  0  0  0  0  0
   -1.8580    0.5837    1.0734 C   0  0  2  0  0  0  0  0  0  0  0  0
   -0.5495    0.0565    0.4938 C   0  0  0  0  0  0  0  0  0  0  0  0
    0.3445   -0.3403    1.2408 O   0  0  0  0  0  0  0  0  0  0  0  0
   -0.4342    0.1064   -0.8516 N   0  0  0  0  0  0  0  0  0  0  0  0
   -1.6440    2.0507    1.4575 C   0  0  0  0  0  0  0  0  0  0  0  0
   -1.4405    2.8745    0.1997 C   0  0  0  0  0  0  0  0  0  0  0  0
   -2.1770    2.7339   -0.7727 O   0  0  0  0  0  0  0  0  0  0  0  0
   -0.4222    3.7654    0.2273 N   0  0  0  0  0  0  0  0  0  0  0  0
    1.6714    0.4396   -2.0420 C   0  0  2  0  0  0  0  0  0  0  0  0
    2.7492   -0.2911   -2.5964 O   0  0  0  0  0  0  0  0  0  0  0  0
    2.1259    1.3270   -0.8998 C   0  0  0  0  0  0  0  0  0  0  0  0
    3.1316    2.2811   -1.3888 N   0  0  0  0  0  0  0  0  0  0  0  0
    3.7029    3.3141   -0.1971 S   0  0  0  0  0  0  0  0  0  0  0  0
    2.6273    3.6752    0.7170 O   0  0  0  0  0  0  0  0  0  0  0  0
    4.4443    4.3436   -0.8934 O   0  0  0  0  0  0  0  0  0  0  0  0
    4.7994    2.2307    0.6608 C   0  0  0  0  0  0  0  0  0  0  0  0
    4.3606    1.5846    1.8142 C   0  0  0  0  0  0  0  0  0  0  0  0
    5.2321    0.7101    2.4595 C   0  0  0  0  0  0  0  0  0  0  0  0
    6.5132    0.4977    1.9539 C   0  0  0  0  0  0  0  0  0  0  0  0
    6.9354    1.1595    0.8003 C   0  0  0  0  0  0  0  0  0  0  0  0
    6.0766    2.0317    0.1396 C   0  0  0  0  0  0  0  0  0  0  0  0
    1.1602   -1.1560   -0.7482 H   0  0  0  0  0  0  0  0  0  0  0  0
   -0.1394   -0.9421   -3.4983 H   0  0  0  0  0  0  0  0  0  0  0  0
    0.9059   -2.2102   -2.8787 H   0  0  0  0  0  0  0  0  0  0  0  0
   -0.1569   -3.0715   -0.3638 H   0  0  0  0  0  0  0  0  0  0  0  0
   -2.2062   -3.9085    0.6558 H   0  0  0  0  0  0  0  0  0  0  0  0
   -4.4873   -2.3566   -2.6230 H   0  0  0  0  0  0  0  0  0  0  0  0
   -2.4015   -1.4968   -3.6569 H   0  0  0  0  0  0  0  0  0  0  0  0
   -3.9976   -3.7980    1.5482 H   0  0  0  0  0  0  0  0  0  0  0  0
   -5.6666   -4.2533    1.2124 H   0  0  0  0  0  0  0  0  0  0  0  0
   -5.6646   -2.2047    2.4983 H   0  0  0  0  0  0  0  0  0  0  0  0
   -6.2653   -1.8881    0.8697 H   0  0  0  0  0  0  0  0  0  0  0  0
   -4.8085   -0.0541    1.4372 H   0  0  0  0  0  0  0  0  0  0  0  0
   -3.9588   -1.0247    0.2610 H   0  0  0  0  0  0  0  0  0  0  0  0
   -1.4064   -0.4744    2.7964 H   0  0  0  0  0  0  0  0  0  0  0  0
   -2.6529    0.5441    0.3349 H   0  0  0  0  0  0  0  0  0  0  0  0
   -1.2444    0.3936   -1.3816 H   0  0  0  0  0  0  0  0  0  0  0  0
   -2.5412    2.4169    1.9575 H   0  0  0  0  0  0  0  0  0  0  0  0
   -0.8056    2.1336    2.1498 H   0  0  0  0  0  0  0  0  0  0  0  0
    0.2953    3.7529    0.9316 H   0  0  0  0  0  0  0  0  0  0  0  0
   -0.2477    4.3023   -0.6054 H   0  0  0  0  0  0  0  0  0  0  0  0
    1.1875    1.0610   -2.8114 H   0  0  0  0  0  0  0  0  0  0  0  0
    3.5028    0.3121   -2.6256 H   0  0  0  0  0  0  0  0  0  0  0  0
    1.2718    1.8354   -0.4585 H   0  0  0  0  0  0  0  0  0  0  0  0
    2.5949    0.7038   -0.1377 H   0  0  0  0  0  0  0  0  0  0  0  0
    2.7705    2.8862   -2.1264 H   0  0  0  0  0  0  0  0  0  0  0  0
    3.3664    1.7733    2.1925 H   0  0  0  0  0  0  0  0  0  0  0  0
    4.9093    0.1970    3.3543 H   0  0  0  0  0  0  0  0  0  0  0  0
    7.1853   -0.1808    2.4607 H   0  0  0  0  0  0  0  0  0  0  0  0
    7.9330    0.9966    0.4171 H   0  0  0  0  0  0  0  0  0  0  0  0
    6.3831    2.5629   -0.7502 H   0  0  0  0  0  0  0  0  0  0  0  0
  1 19  1  0  0  0  0
  1 37  1  1  0  0  0
  2  3  1  0  0  0  0
  2  1  1  0  0  0  0
  3  4  2  0  0  0  0
  4 40  1  0  0  0  0
  4  5  1  0  0  0  0
  5 41  1  0  0  0  0
  6  9  1  0  0  0  0
  6  5  2  0  0  0  0
  7  6  1  0  0  0  0
  8  7  2  0  0  0  0
  8  3  1  0  0  0  0
  9 10  1  0  0  0  0
 10 45  1  0  0  0  0
 10 11  1  0  0  0  0
 10 44  1  0  0  0  0
 11 46  1  0  0  0  0
 12 48  1  0  0  0  0
 12 11  1  0  0  0  0
 12 13  1  0  0  0  0
 13 14  2  0  0  0  0
 15 13  1  0  0  0  0
 15 50  1  0  0  0  0
 16 51  1  6  0  0  0
 16 20  1  0  0  0  0
 16 15  1  0  0  0  0
 17 16  1  0  0  0  0
 17 18  2  0  0  0  0
 19 17  1  0  0  0  0
 20 53  1  0  0  0  0
 20 54  1  0  0  0  0
 21 23  1  0  0  0  0
 21 20  1  0  0  0  0
 22 21  2  0  0  0  0
 23 55  1  0  0  0  0
 24 57  1  6  0  0  0
 24  1  1  0  0  0  0
 24 26  1  0  0  0  0
 25 24  1  0  0  0  0
 26 59  1  0  0  0  0
 26 60  1  0  0  0  0
 27 26  1  0  0  0  0
 27 28  1  0  0  0  0
 28 31  1  0  0  0  0
 28 29  2  0  0  0  0
 30 28  2  0  0  0  0
 31 32  1  0  0  0  0
 32 62  1  0  0  0  0
 32 33  2  0  0  0  0
 33 63  1  0  0  0  0
 34 33  1  0  0  0  0
 34 64  1  0  0  0  0
 35 34  2  0  0  0  0
 36 31  2  0  0  0  0
 36 35  1  0  0  0  0
 38  2  1  0  0  0  0
 39  2  1  0  0  0  0
 42  7  1  0  0  0  0
 43  8  1  0  0  0  0
 47 11  1  0  0  0  0
 49 12  1  0  0  0  0
 52 19  1  0  0  0  0
 56 23  1  0  0  0  0
 58 25  1  0  0  0  0
 61 27  1  0  0  0  0
 65 35  1  0  0  0  0
 66 36  1  0  0  0  0
M  END
