omegapdb_2byh_14.xyz
 OpenBabel11041815263D

 40 42  0  0  0  0  0  0  0  0999 V2000
    6.7547    0.8705    2.0820 O   0  0  0  0  0  0  0  0  0  0  0  0
    5.6428    1.2600    2.4060 C   0  0  0  0  0  0  0  0  0  0  0  0
    5.4651    2.3499    3.4339 C   0  0  0  0  0  0  0  0  0  0  0  0
    4.4205    0.6650    1.7909 C   0  0  0  0  0  0  0  0  0  0  0  0
    3.1293    1.0754    2.1292 C   0  0  0  0  0  0  0  0  0  0  0  0
    2.0068    0.5034    1.5378 C   0  0  0  0  0  0  0  0  0  0  0  0
    2.1774   -0.5056    0.5849 C   0  0  0  0  0  0  0  0  0  0  0  0
    3.4713   -0.9226    0.2417 C   0  0  0  0  0  0  0  0  0  0  0  0
    4.5785   -0.3446    0.8355 C   0  0  0  0  0  0  0  0  0  0  0  0
    1.1138   -1.1532   -0.0613 N   0  0  0  0  0  0  0  0  0  0  0  0
   -0.2256   -0.9289    0.0540 C   0  0  0  0  0  0  0  0  0  0  0  0
   -0.7024   -0.0277    0.7520 O   0  0  0  0  0  0  0  0  0  0  0  0
   -1.0500   -1.8603   -0.7216 C   0  0  0  0  0  0  0  0  0  0  0  0
   -0.7429   -3.1879   -1.0843 C   0  0  0  0  0  0  0  0  0  0  0  0
   -1.7149   -3.7381   -1.8247 N   0  0  0  0  0  0  0  0  0  0  0  0
   -2.6165   -2.7591   -1.9362 N   0  0  0  0  0  0  0  0  0  0  0  0
   -2.2991   -1.6013   -1.2964 C   0  0  0  0  0  0  0  0  0  0  0  0
   -3.1998   -0.4559   -1.4053 C   0  0  0  0  0  0  0  0  0  0  0  0
   -3.6855   -0.1200   -2.6776 C   0  0  0  0  0  0  0  0  0  0  0  0
   -4.6593    0.8514   -2.8488 C   0  0  0  0  0  0  0  0  0  0  0  0
   -5.2302    1.2425   -4.4302 Cl  0  0  0  0  0  0  0  0  0  0  0  0
   -5.1787    1.5186   -1.7344 C   0  0  0  0  0  0  0  0  0  0  0  0
   -6.1362    2.4600   -1.9387 O   0  0  0  0  0  0  0  0  0  0  0  0
   -4.6833    1.2053   -0.4735 C   0  0  0  0  0  0  0  0  0  0  0  0
   -3.6993    0.2355   -0.2861 C   0  0  0  0  0  0  0  0  0  0  0  0
   -3.3192   -0.0339    0.9819 O   0  0  0  0  0  0  0  0  0  0  0  0
    6.4440    2.6680    3.7770 H   0  0  0  0  0  0  0  0  0  0  0  0
    4.9333    3.1980    3.0041 H   0  0  0  0  0  0  0  0  0  0  0  0
    4.8800    1.9876    4.2785 H   0  0  0  0  0  0  0  0  0  0  0  0
    2.9797    1.8543    2.8634 H   0  0  0  0  0  0  0  0  0  0  0  0
    1.0159    0.8322    1.7991 H   0  0  0  0  0  0  0  0  0  0  0  0
    3.6012   -1.7054   -0.4962 H   0  0  0  0  0  0  0  0  0  0  0  0
    5.5792   -0.6597    0.5760 H   0  0  0  0  0  0  0  0  0  0  0  0
    1.3773   -1.8426   -0.7479 H   0  0  0  0  0  0  0  0  0  0  0  0
    0.1112   -3.7847   -0.8086 H   0  0  0  0  0  0  0  0  0  0  0  0
   -3.4741   -2.9304   -2.4393 H   0  0  0  0  0  0  0  0  0  0  0  0
   -3.2879   -0.6161   -3.5531 H   0  0  0  0  0  0  0  0  0  0  0  0
   -6.3820    2.8249   -1.0813 H   0  0  0  0  0  0  0  0  0  0  0  0
   -5.0575    1.7180    0.4039 H   0  0  0  0  0  0  0  0  0  0  0  0
   -2.3374   -0.1425    0.9793 H   0  0  0  0  0  0  0  0  0  0  0  0
  1  2  2  0  0  0  0
  2  3  1  0  0  0  0
  3 27  1  0  0  0  0
  3 29  1  0  0  0  0
  4  5  1  0  0  0  0
  4  2  1  0  0  0  0
  5 30  1  0  0  0  0
  6 31  1  0  0  0  0
  6  5  2  0  0  0  0
  7  6  1  0  0  0  0
  8  7  2  0  0  0  0
  8  9  1  0  0  0  0
  9  4  2  0  0  0  0
 10 11  1  0  0  0  0
 10  7  1  0  0  0  0
 11 12  2  0  0  0  0
 13 11  1  0  0  0  0
 14 35  1  0  0  0  0
 14 13  1  0  0  0  0
 15 14  2  0  0  0  0
 16 15  1  0  0  0  0
 16 17  1  0  0  0  0
 17 13  2  0  0  0  0
 18 17  1  0  0  0  0
 18 25  2  0  0  0  0
 19 18  1  0  0  0  0
 20 19  2  0  0  0  0
 20 22  1  0  0  0  0
 21 20  1  0  0  0  0
 22 24  2  0  0  0  0
 23 22  1  0  0  0  0
 23 38  1  0  0  0  0
 24 25  1  0  0  0  0
 24 39  1  0  0  0  0
 25 26  1  0  0  0  0
 28  3  1  0  0  0  0
 32  8  1  0  0  0  0
 33  9  1  0  0  0  0
 34 10  1  0  0  0  0
 36 16  1  0  0  0  0
 37 19  1  0  0  0  0
 40 26  1  0  0  0  0
M  END
