omegapdb_1m5f_04.xyz
 OpenBabel11041815263D

 25 25  0  0  1  0  0  0  0  0999 V2000
   -0.8802   -3.2276   -1.8245 O   0  0  0  0  0  0  0  0  0  0  0  0
   -0.3320   -2.4846   -0.8504 C   0  0  0  0  0  0  0  0  0  0  0  0
    0.6649   -2.8316   -0.2598 O   0  0  0  0  0  0  0  0  0  0  0  0
   -1.0515   -1.2242   -0.5557 C   0  0  0  0  0  0  0  0  0  0  0  0
   -2.1815   -0.9806   -1.2141 N   0  0  0  0  0  0  0  0  0  0  0  0
   -2.6349    0.2178   -0.7411 O   0  0  0  0  0  0  0  0  0  0  0  0
   -1.7773    0.6888    0.1993 C   0  0  0  0  0  0  0  0  0  0  0  0
   -0.7410   -0.1960    0.3642 C   0  0  0  0  0  0  0  0  0  0  0  0
    0.4342   -0.0573    1.2724 C   0  0  0  0  0  0  0  0  0  0  0  0
    1.6086    0.6729    0.5865 C   0  0  2  0  0  0  0  0  0  0  0  0
    1.1533    1.9543    0.0710 N   0  0  0  0  0  0  0  0  0  0  0  0
    2.1634   -0.2397   -0.4875 C   0  0  0  0  0  0  0  0  0  0  0  0
    1.8078   -0.2170   -1.6454 O   0  0  0  0  0  0  0  0  0  0  0  0
    3.0603   -1.1074    0.0108 O   0  0  0  0  0  0  0  0  0  0  0  0
   -2.1338    1.9794    0.8323 C   0  0  0  0  0  0  0  0  0  0  0  0
   -1.6653   -2.7529   -2.1453 H   0  0  0  0  0  0  0  0  0  0  0  0
    0.1515    0.5346    2.1419 H   0  0  0  0  0  0  0  0  0  0  0  0
    0.7621   -1.0392    1.6082 H   0  0  0  0  0  0  0  0  0  0  0  0
    2.3798    0.8356    1.3373 H   0  0  0  0  0  0  0  0  0  0  0  0
    0.6908    1.7807   -0.8171 H   0  0  0  0  0  0  0  0  0  0  0  0
    1.9583    2.5266   -0.1562 H   0  0  0  0  0  0  0  0  0  0  0  0
    3.2219   -1.7628   -0.6858 H   0  0  0  0  0  0  0  0  0  0  0  0
   -2.4120    2.7080    0.0731 H   0  0  0  0  0  0  0  0  0  0  0  0
   -2.9745    1.8602    1.5149 H   0  0  0  0  0  0  0  0  0  0  0  0
   -1.2727    2.3620    1.3715 H   0  0  0  0  0  0  0  0  0  0  0  0
  1  2  1  0  0  0  0
  2  4  1  0  0  0  0
  2  3  2  0  0  0  0
  4  8  1  0  0  0  0
  5  6  1  0  0  0  0
  5  4  2  0  0  0  0
  6  7  1  0  0  0  0
  7  8  2  0  0  0  0
  7 15  1  0  0  0  0
  8  9  1  0  0  0  0
  9 18  1  0  0  0  0
  9 17  1  0  0  0  0
 10  9  1  0  0  0  0
 10 19  1  1  0  0  0
 11 10  1  0  0  0  0
 12 14  1  0  0  0  0
 12 10  1  0  0  0  0
 13 12  2  0  0  0  0
 15 25  1  0  0  0  0
 15 24  1  0  0  0  0
 16  1  1  0  0  0  0
 20 11  1  0  0  0  0
 21 11  1  0  0  0  0
 22 14  1  0  0  0  0
 23 15  1  0  0  0  0
M  END
