omegapdb_1qxw_00.xyz
 OpenBabel11041815263D

 36 36  0  0  1  0  0  0  0  0999 V2000
    4.1147    1.7423   -0.2754 C   0  0  0  0  0  0  0  0  0  0  0  0
    5.0941    0.9777    0.5814 C   0  0  0  0  0  0  0  0  0  0  0  0
    4.0498    0.2446   -0.2048 C   0  0  0  0  0  0  0  0  0  0  0  0
    2.9516   -0.3095    0.5323 N   0  0  0  0  0  0  0  0  0  0  0  0
    1.7467   -0.4754   -0.2744 C   0  0  0  0  0  0  0  0  0  0  0  0
    0.6232   -0.8646    0.6719 C   0  0  0  0  0  0  0  0  0  0  0  0
   -0.7574   -1.0158    0.0276 C   0  0  1  0  0  0  0  0  0  0  0  0
   -1.6095   -1.5718    1.0845 N   0  0  0  0  0  0  0  0  0  0  0  0
   -1.2614    0.2658   -0.6298 C   0  0  0  0  0  0  0  0  0  0  0  0
   -2.6660    0.1381   -1.2326 C   0  0  0  0  0  0  0  0  0  0  0  0
   -3.7920    0.5950   -0.3095 C   0  0  0  0  0  0  0  0  0  0  0  0
   -5.1634    0.4347   -0.9517 C   0  0  0  0  0  0  0  0  0  0  0  0
    0.4895    0.1231    1.6720 O   0  0  0  0  0  0  0  0  0  0  0  0
    1.0055   -2.1038    1.2248 O   0  0  0  0  0  0  0  0  0  0  0  0
    3.3279    2.2730    0.2386 H   0  0  0  0  0  0  0  0  0  0  0  0
    4.4794    2.1979   -1.1825 H   0  0  0  0  0  0  0  0  0  0  0  0
    4.9441    1.0162    1.6488 H   0  0  0  0  0  0  0  0  0  0  0  0
    6.1186    0.9145    0.2499 H   0  0  0  0  0  0  0  0  0  0  0  0
    4.3886   -0.2949   -1.0857 H   0  0  0  0  0  0  0  0  0  0  0  0
    3.2045   -1.2095    0.9264 H   0  0  0  0  0  0  0  0  0  0  0  0
    1.5260    0.4849   -0.7364 H   0  0  0  0  0  0  0  0  0  0  0  0
    1.8463   -1.2340   -1.0596 H   0  0  0  0  0  0  0  0  0  0  0  0
   -0.6604   -1.7913   -0.7365 H   0  0  0  0  0  0  0  0  0  0  0  0
   -1.8060   -0.8481    1.7668 H   0  0  0  0  0  0  0  0  0  0  0  0
   -2.4937   -1.8841    0.7062 H   0  0  0  0  0  0  0  0  0  0  0  0
   -0.5574    0.5393   -1.4176 H   0  0  0  0  0  0  0  0  0  0  0  0
   -1.2383    1.0725    0.1054 H   0  0  0  0  0  0  0  0  0  0  0  0
   -2.7249    0.7321   -2.1470 H   0  0  0  0  0  0  0  0  0  0  0  0
   -2.8438   -0.8979   -1.5409 H   0  0  0  0  0  0  0  0  0  0  0  0
   -3.7576    0.0412    0.6292 H   0  0  0  0  0  0  0  0  0  0  0  0
   -3.6246    1.6424   -0.0498 H   0  0  0  0  0  0  0  0  0  0  0  0
   -5.3601   -0.6104   -1.1913 H   0  0  0  0  0  0  0  0  0  0  0  0
   -5.2237    1.0024   -1.8802 H   0  0  0  0  0  0  0  0  0  0  0  0
   -5.9588    0.7823   -0.2946 H   0  0  0  0  0  0  0  0  0  0  0  0
    1.4064    0.3252    1.9186 H   0  0  0  0  0  0  0  0  0  0  0  0
    0.1822   -2.4345    1.6234 H   0  0  0  0  0  0  0  0  0  0  0  0
  1  3  1  0  0  0  0
  1 15  1  0  0  0  0
  1  2  1  0  0  0  0
  2 17  1  0  0  0  0
  3  4  1  0  0  0  0
  3  2  1  0  0  0  0
  4 20  1  0  0  0  0
  5  4  1  0  0  0  0
  5  6  1  0  0  0  0
  6 14  1  0  0  0  0
  6 13  1  0  0  0  0
  7 23  1  6  0  0  0
  7  6  1  0  0  0  0
  7  8  1  0  0  0  0
  8 24  1  0  0  0  0
  9  7  1  0  0  0  0
  9 27  1  0  0  0  0
 10  9  1  0  0  0  0
 10 11  1  0  0  0  0
 11 31  1  0  0  0  0
 11 30  1  0  0  0  0
 12 11  1  0  0  0  0
 12 34  1  0  0  0  0
 13 35  1  0  0  0  0
 14 36  1  0  0  0  0
 16  1  1  0  0  0  0
 18  2  1  0  0  0  0
 19  3  1  0  0  0  0
 21  5  1  0  0  0  0
 22  5  1  0  0  0  0
 25  8  1  0  0  0  0
 26  9  1  0  0  0  0
 28 10  1  0  0  0  0
 29 10  1  0  0  0  0
 32 12  1  0  0  0  0
 33 12  1  0  0  0  0
M  END
