omegapdb_1v2k_06.xyz
 OpenBabel11041815263D

 61 65  0  0  0  0  0  0  0  0999 V2000
    9.6263   -0.4882   -0.4711 N   0  0  0  0  0  0  0  0  0  0  0  0
    9.0494    0.4846   -1.1944 C   0  0  0  0  0  0  0  0  0  0  0  0
    7.7046    0.8163   -1.1364 C   0  0  0  0  0  0  0  0  0  0  0  0
    6.8473    0.1110   -0.2770 C   0  0  0  0  0  0  0  0  0  0  0  0
    7.4424   -0.9085    0.4779 C   0  0  0  0  0  0  0  0  0  0  0  0
    8.8065   -1.1553    0.3472 C   0  0  0  0  0  0  0  0  0  0  0  0
    5.4976    0.4553   -0.1702 N   0  0  0  0  0  0  0  0  0  0  0  0
    4.7159   -0.2748    0.8128 C   0  0  0  0  0  0  0  0  0  0  0  0
    3.3914    0.4277    1.0697 C   0  0  0  0  0  0  0  0  0  0  0  0
    2.5969    0.6051   -0.2262 C   0  0  0  0  0  0  0  0  0  0  0  0
    3.4661    1.3550   -1.2266 C   0  0  0  0  0  0  0  0  0  0  0  0
    4.7790    0.6218   -1.4348 C   0  0  0  0  0  0  0  0  0  0  0  0
    1.3273    1.3785    0.0701 C   0  0  0  0  0  0  0  0  0  0  0  0
    1.3111    2.6069    0.0513 O   0  0  0  0  0  0  0  0  0  0  0  0
    0.2239    0.6451    0.4088 N   0  0  0  0  0  0  0  0  0  0  0  0
   -1.0304    1.3488    0.6404 C   0  0  0  0  0  0  0  0  0  0  0  0
   -2.1610    0.6101   -0.0463 C   0  0  0  0  0  0  0  0  0  0  0  0
   -2.3052   -0.7331    0.5555 N   0  0  0  0  0  0  0  0  0  0  0  0
   -1.0698   -1.2472    1.1743 C   0  0  0  0  0  0  0  0  0  0  0  0
    0.1732   -0.8151    0.4156 C   0  0  0  0  0  0  0  0  0  0  0  0
   -3.0374   -1.8356   -0.4702 S   0  0  0  0  0  0  0  0  0  0  0  0
   -2.4260   -1.8224   -1.7912 O   0  0  0  0  0  0  0  0  0  0  0  0
   -3.1280   -3.0812    0.2659 O   0  0  0  0  0  0  0  0  0  0  0  0
   -4.6353   -1.0893   -0.6080 C   0  0  0  0  0  0  0  0  0  0  0  0
   -5.4676   -1.1127    0.4906 C   0  0  0  0  0  0  0  0  0  0  0  0
   -6.7441   -0.5211    0.4041 C   0  0  0  0  0  0  0  0  0  0  0  0
   -7.1475    0.0938   -0.8249 C   0  0  0  0  0  0  0  0  0  0  0  0
   -6.2590    0.0871   -1.9258 C   0  0  0  0  0  0  0  0  0  0  0  0
   -5.0145   -0.4947   -1.8269 C   0  0  0  0  0  0  0  0  0  0  0  0
   -8.4253    0.6894   -0.9124 C   0  0  0  0  0  0  0  0  0  0  0  0
   -9.2629    0.6713    0.1791 C   0  0  0  0  0  0  0  0  0  0  0  0
   -8.8788    0.0676    1.3948 C   0  0  0  0  0  0  0  0  0  0  0  0
   -7.6393   -0.5179    1.5003 C   0  0  0  0  0  0  0  0  0  0  0  0
  -10.8298    1.4010    0.0758 Cl  0  0  0  0  0  0  0  0  0  0  0  0
    9.7057    1.0392   -1.8539 H   0  0  0  0  0  0  0  0  0  0  0  0
    7.3422    1.6408   -1.7322 H   0  0  0  0  0  0  0  0  0  0  0  0
    6.8690   -1.5243    1.1529 H   0  0  0  0  0  0  0  0  0  0  0  0
    9.2587   -1.9471    0.9327 H   0  0  0  0  0  0  0  0  0  0  0  0
    4.5309   -1.3120    0.4869 H   0  0  0  0  0  0  0  0  0  0  0  0
    5.2829   -0.3148    1.7414 H   0  0  0  0  0  0  0  0  0  0  0  0
    2.8220   -0.1430    1.8065 H   0  0  0  0  0  0  0  0  0  0  0  0
    3.5832    1.4160    1.4919 H   0  0  0  0  0  0  0  0  0  0  0  0
    2.3627   -0.3799   -0.6364 H   0  0  0  0  0  0  0  0  0  0  0  0
    3.6528    2.3596   -0.8501 H   0  0  0  0  0  0  0  0  0  0  0  0
    2.9490    1.4503   -2.1825 H   0  0  0  0  0  0  0  0  0  0  0  0
    4.5902   -0.3659   -1.8851 H   0  0  0  0  0  0  0  0  0  0  0  0
    5.4047    1.1763   -2.1272 H   0  0  0  0  0  0  0  0  0  0  0  0
   -0.9204    2.3466    0.2235 H   0  0  0  0  0  0  0  0  0  0  0  0
   -1.2335    1.4548    1.7087 H   0  0  0  0  0  0  0  0  0  0  0  0
   -3.0981    1.1528    0.0768 H   0  0  0  0  0  0  0  0  0  0  0  0
   -1.9359    0.5371   -1.1142 H   0  0  0  0  0  0  0  0  0  0  0  0
   -1.0256   -0.8780    2.1990 H   0  0  0  0  0  0  0  0  0  0  0  0
   -1.1349   -2.3317    1.2184 H   0  0  0  0  0  0  0  0  0  0  0  0
    1.0492   -1.2212    0.9201 H   0  0  0  0  0  0  0  0  0  0  0  0
    0.1388   -1.2203   -0.5993 H   0  0  0  0  0  0  0  0  0  0  0  0
   -5.1451   -1.5880    1.4083 H   0  0  0  0  0  0  0  0  0  0  0  0
   -6.5712    0.5473   -2.8548 H   0  0  0  0  0  0  0  0  0  0  0  0
   -4.3288   -0.5181   -2.6618 H   0  0  0  0  0  0  0  0  0  0  0  0
   -8.7429    1.1566   -1.8348 H   0  0  0  0  0  0  0  0  0  0  0  0
   -9.5656    0.0724    2.2288 H   0  0  0  0  0  0  0  0  0  0  0  0
   -7.3367   -0.9849    2.4288 H   0  0  0  0  0  0  0  0  0  0  0  0
  1  6  2  0  0  0  0
  2  3  2  0  0  0  0
  2  1  1  0  0  0  0
  3  4  1  0  0  0  0
  4  7  1  0  0  0  0
  4  5  2  0  0  0  0
  5 37  1  0  0  0  0
  6  5  1  0  0  0  0
  6 38  1  0  0  0  0
  7  8  1  0  0  0  0
  8  9  1  0  0  0  0
  8 40  1  0  0  0  0
  9 42  1  0  0  0  0
  9 41  1  0  0  0  0
 10 13  1  0  0  0  0
 10  9  1  0  0  0  0
 11 44  1  0  0  0  0
 11 10  1  0  0  0  0
 12 11  1  0  0  0  0
 12  7  1  0  0  0  0
 13 15  1  0  0  0  0
 14 13  2  0  0  0  0
 15 20  1  0  0  0  0
 15 16  1  0  0  0  0
 16 49  1  0  0  0  0
 17 50  1  0  0  0  0
 17 18  1  0  0  0  0
 17 16  1  0  0  0  0
 18 19  1  0  0  0  0
 19 53  1  0  0  0  0
 19 52  1  0  0  0  0
 20 54  1  0  0  0  0
 20 19  1  0  0  0  0
 21 23  2  0  0  0  0
 21 18  1  0  0  0  0
 22 21  2  0  0  0  0
 24 21  1  0  0  0  0
 24 25  2  0  0  0  0
 25 56  1  0  0  0  0
 26 25  1  0  0  0  0
 26 33  2  0  0  0  0
 27 26  1  0  0  0  0
 28 29  2  0  0  0  0
 28 27  1  0  0  0  0
 29 24  1  0  0  0  0
 30 27  2  0  0  0  0
 30 31  1  0  0  0  0
 31 32  2  0  0  0  0
 32 33  1  0  0  0  0
 32 60  1  0  0  0  0
 33 61  1  0  0  0  0
 34 31  1  0  0  0  0
 35  2  1  0  0  0  0
 36  3  1  0  0  0  0
 39  8  1  0  0  0  0
 43 10  1  0  0  0  0
 45 11  1  0  0  0  0
 46 12  1  0  0  0  0
 47 12  1  0  0  0  0
 48 16  1  0  0  0  0
 51 17  1  0  0  0  0
 55 20  1  0  0  0  0
 57 28  1  0  0  0  0
 58 29  1  0  0  0  0
 59 30  1  0  0  0  0
M  END
