omegapdb_1qxw_06.xyz
 OpenBabel11041815263D

 36 36  0  0  1  0  0  0  0  0999 V2000
    3.7063    1.6876   -0.8216 C   0  0  0  0  0  0  0  0  0  0  0  0
    4.9157    0.8234   -0.5590 C   0  0  0  0  0  0  0  0  0  0  0  0
    3.7374    0.7715    0.3658 C   0  0  0  0  0  0  0  0  0  0  0  0
    2.9030   -0.3940    0.2934 N   0  0  0  0  0  0  0  0  0  0  0  0
    1.5357   -0.1479    0.7509 C   0  0  0  0  0  0  0  0  0  0  0  0
    0.7005   -1.3508    0.3368 C   0  0  0  0  0  0  0  0  0  0  0  0
   -0.8038   -1.1952    0.5476 C   0  0  1  0  0  0  0  0  0  0  0  0
   -1.0344   -0.9812    1.9748 N   0  0  0  0  0  0  0  0  0  0  0  0
   -1.4031   -0.0534   -0.2595 C   0  0  0  0  0  0  0  0  0  0  0  0
   -2.9262   -0.0302   -0.2150 C   0  0  0  0  0  0  0  0  0  0  0  0
   -3.5202    1.0582   -1.1004 C   0  0  0  0  0  0  0  0  0  0  0  0
   -5.0419    1.0871   -1.0478 C   0  0  0  0  0  0  0  0  0  0  0  0
    1.1831   -2.4290    1.1502 O   0  0  0  0  0  0  0  0  0  0  0  0
    0.9165   -1.6431   -1.0133 O   0  0  0  0  0  0  0  0  0  0  0  0
    3.0596    1.3894   -1.6327 H   0  0  0  0  0  0  0  0  0  0  0  0
    3.7922    2.7493   -0.6517 H   0  0  0  0  0  0  0  0  0  0  0  0
    5.8169    1.3017   -0.2090 H   0  0  0  0  0  0  0  0  0  0  0  0
    5.0543   -0.0320   -1.2012 H   0  0  0  0  0  0  0  0  0  0  0  0
    3.8547    1.2441    1.3372 H   0  0  0  0  0  0  0  0  0  0  0  0
    3.2987   -1.1446    0.8493 H   0  0  0  0  0  0  0  0  0  0  0  0
    1.1702    0.7387    0.2363 H   0  0  0  0  0  0  0  0  0  0  0  0
    1.4462    0.0104    1.8273 H   0  0  0  0  0  0  0  0  0  0  0  0
   -1.2390   -2.1352    0.1728 H   0  0  0  0  0  0  0  0  0  0  0  0
   -0.6107   -1.7469    2.4863 H   0  0  0  0  0  0  0  0  0  0  0  0
   -2.0268   -1.0155    2.1697 H   0  0  0  0  0  0  0  0  0  0  0  0
   -1.0721   -0.1502   -1.2942 H   0  0  0  0  0  0  0  0  0  0  0  0
   -1.0229    0.8931    0.1301 H   0  0  0  0  0  0  0  0  0  0  0  0
   -3.2713    0.1303    0.8100 H   0  0  0  0  0  0  0  0  0  0  0  0
   -3.3146   -1.0032   -0.5313 H   0  0  0  0  0  0  0  0  0  0  0  0
   -3.1876    0.9011   -2.1287 H   0  0  0  0  0  0  0  0  0  0  0  0
   -3.1209    2.0265   -0.7908 H   0  0  0  0  0  0  0  0  0  0  0  0
   -5.3905    1.2694   -0.0313 H   0  0  0  0  0  0  0  0  0  0  0  0
   -5.4583    0.1342   -1.3744 H   0  0  0  0  0  0  0  0  0  0  0  0
   -5.4522    1.8675   -1.6866 H   0  0  0  0  0  0  0  0  0  0  0  0
    0.9533   -3.2294    0.6624 H   0  0  0  0  0  0  0  0  0  0  0  0
    1.8522   -1.4018   -1.1448 H   0  0  0  0  0  0  0  0  0  0  0  0
  1 16  1  0  0  0  0
  1  2  1  0  0  0  0
  1  3  1  0  0  0  0
  2 17  1  0  0  0  0
  2  3  1  0  0  0  0
  3 19  1  0  0  0  0
  4  3  1  0  0  0  0
  4  5  1  0  0  0  0
  4 20  1  0  0  0  0
  5 22  1  0  0  0  0
  6  7  1  0  0  0  0
  6  5  1  0  0  0  0
  6 13  1  0  0  0  0
  7 23  1  6  0  0  0
  7  8  1  0  0  0  0
  8 25  1  0  0  0  0
  8 24  1  0  0  0  0
  9 10  1  0  0  0  0
  9 27  1  0  0  0  0
  9  7  1  0  0  0  0
 10 28  1  0  0  0  0
 11 12  1  0  0  0  0
 11 31  1  0  0  0  0
 11 10  1  0  0  0  0
 12 32  1  0  0  0  0
 14  6  1  0  0  0  0
 15  1  1  0  0  0  0
 18  2  1  0  0  0  0
 21  5  1  0  0  0  0
 26  9  1  0  0  0  0
 29 10  1  0  0  0  0
 30 11  1  0  0  0  0
 33 12  1  0  0  0  0
 34 12  1  0  0  0  0
 35 13  1  0  0  0  0
 36 14  1  0  0  0  0
M  END
