omegapdb_1z1r_16.xyz
 OpenBabel11041815263D

 66 68  0  0  1  0  0  0  0  0999 V2000
    0.6447    1.2489    0.3653 C   0  0  2  0  0  0  0  0  0  0  0  0
    0.9965    0.7614   -1.0456 C   0  0  0  0  0  0  0  0  0  0  0  0
    0.3040   -0.5407   -1.3171 C   0  0  0  0  0  0  0  0  0  0  0  0
    0.6721   -1.6876   -0.6056 C   0  0  0  0  0  0  0  0  0  0  0  0
   -0.0337   -2.8776   -0.7518 C   0  0  0  0  0  0  0  0  0  0  0  0
   -1.1237   -2.9362   -1.6190 C   0  0  0  0  0  0  0  0  0  0  0  0
   -1.4620   -1.8220   -2.3876 C   0  0  0  0  0  0  0  0  0  0  0  0
   -0.7579   -0.6316   -2.2210 C   0  0  0  0  0  0  0  0  0  0  0  0
   -1.8426   -4.1041   -1.6835 O   0  0  0  0  0  0  0  0  0  0  0  0
   -3.2123   -3.9632   -1.2764 C   0  0  0  0  0  0  0  0  0  0  0  0
   -3.3871   -3.5285    0.1718 C   0  0  0  0  0  0  0  0  0  0  0  0
   -3.2352   -2.0333    0.4230 C   0  0  0  0  0  0  0  0  0  0  0  0
   -3.5950   -1.6700    1.8465 C   0  0  0  0  0  0  0  0  0  0  0  0
   -3.8718   -2.5014    2.6965 O   0  0  0  0  0  0  0  0  0  0  0  0
   -3.6356   -0.3204    2.1362 N   0  0  0  0  0  0  0  0  0  0  0  0
   -2.9916    0.6893    1.3325 C   0  0  2  0  0  0  0  0  0  0  0  0
   -1.4599    0.6155    1.4469 C   0  0  0  0  0  0  0  0  0  0  0  0
   -0.9164   -0.0142    2.3485 O   0  0  0  0  0  0  0  0  0  0  0  0
   -0.7960    1.3142    0.4963 N   0  0  0  0  0  0  0  0  0  0  0  0
   -3.4935    2.0611    1.7778 C   0  0  0  0  0  0  0  0  0  0  0  0
   -3.2281    3.1496    0.7570 C   0  0  0  0  0  0  0  0  0  0  0  0
   -3.0341    2.9171   -0.4305 O   0  0  0  0  0  0  0  0  0  0  0  0
   -3.2382    4.4130    1.2548 N   0  0  0  0  0  0  0  0  0  0  0  0
    1.2540    2.5907    0.7613 C   0  0  2  0  0  0  0  0  0  0  0  0
    0.8592    3.5616   -0.2110 O   0  0  0  0  0  0  0  0  0  0  0  0
    2.7699    2.5710    0.9168 C   0  0  0  0  0  0  0  0  0  0  0  0
    3.4172    2.5122   -0.3846 N   0  0  0  0  0  0  0  0  0  0  0  0
    4.9796    1.9786   -0.4620 S   0  0  0  0  0  0  0  0  0  0  0  0
    5.4811    2.4315   -1.7430 O   0  0  0  0  0  0  0  0  0  0  0  0
    5.6787    2.2672    0.7756 O   0  0  0  0  0  0  0  0  0  0  0  0
    4.7089    0.2276   -0.5214 C   0  0  0  0  0  0  0  0  0  0  0  0
    4.8091   -0.5235    0.6473 C   0  0  0  0  0  0  0  0  0  0  0  0
    4.5266   -1.8885    0.5950 C   0  0  0  0  0  0  0  0  0  0  0  0
    4.1497   -2.4811   -0.6087 C   0  0  0  0  0  0  0  0  0  0  0  0
    4.0604   -1.7148   -1.7722 C   0  0  0  0  0  0  0  0  0  0  0  0
    4.3395   -0.3522   -1.7355 C   0  0  0  0  0  0  0  0  0  0  0  0
    0.9712    0.5092    1.0986 H   0  0  0  0  0  0  0  0  0  0  0  0
    0.6954    1.5188   -1.7718 H   0  0  0  0  0  0  0  0  0  0  0  0
    2.0751    0.6468   -1.1217 H   0  0  0  0  0  0  0  0  0  0  0  0
    1.5010   -1.6411    0.0907 H   0  0  0  0  0  0  0  0  0  0  0  0
    0.2200   -3.7577   -0.1765 H   0  0  0  0  0  0  0  0  0  0  0  0
   -2.2845   -1.8809   -3.0877 H   0  0  0  0  0  0  0  0  0  0  0  0
   -1.0403    0.2413   -2.7978 H   0  0  0  0  0  0  0  0  0  0  0  0
   -3.6296   -4.9577   -1.4168 H   0  0  0  0  0  0  0  0  0  0  0  0
   -3.7362   -3.2789   -1.9510 H   0  0  0  0  0  0  0  0  0  0  0  0
   -4.3871   -3.8267    0.4912 H   0  0  0  0  0  0  0  0  0  0  0  0
   -2.6925   -4.0863    0.8000 H   0  0  0  0  0  0  0  0  0  0  0  0
   -3.8691   -1.4682   -0.2659 H   0  0  0  0  0  0  0  0  0  0  0  0
   -2.2127   -1.6972    0.2414 H   0  0  0  0  0  0  0  0  0  0  0  0
   -3.6089   -0.1670    3.1357 H   0  0  0  0  0  0  0  0  0  0  0  0
   -3.2760    0.5590    0.2894 H   0  0  0  0  0  0  0  0  0  0  0  0
   -1.3366    1.7860   -0.2176 H   0  0  0  0  0  0  0  0  0  0  0  0
   -4.5769    1.9975    1.9065 H   0  0  0  0  0  0  0  0  0  0  0  0
   -3.0636    2.3294    2.7453 H   0  0  0  0  0  0  0  0  0  0  0  0
   -3.2310    5.1730    0.5964 H   0  0  0  0  0  0  0  0  0  0  0  0
   -3.5327    4.5947    2.1963 H   0  0  0  0  0  0  0  0  0  0  0  0
    0.8285    2.8389    1.7382 H   0  0  0  0  0  0  0  0  0  0  0  0
    0.7125    4.3971    0.2415 H   0  0  0  0  0  0  0  0  0  0  0  0
    3.0971    3.4429    1.4890 H   0  0  0  0  0  0  0  0  0  0  0  0
    3.0593    1.6863    1.4864 H   0  0  0  0  0  0  0  0  0  0  0  0
    3.2679    3.3118   -0.9877 H   0  0  0  0  0  0  0  0  0  0  0  0
    5.1263   -0.0452    1.5633 H   0  0  0  0  0  0  0  0  0  0  0  0
    4.6041   -2.4863    1.4927 H   0  0  0  0  0  0  0  0  0  0  0  0
    3.9274   -3.5388   -0.6436 H   0  0  0  0  0  0  0  0  0  0  0  0
    3.7701   -2.1787   -2.7046 H   0  0  0  0  0  0  0  0  0  0  0  0
    4.2852    0.2581   -2.6266 H   0  0  0  0  0  0  0  0  0  0  0  0
  1 19  1  0  0  0  0
  1 24  1  0  0  0  0
  1 37  1  1  0  0  0
  2  1  1  0  0  0  0
  3  2  1  0  0  0  0
  3  4  2  0  0  0  0
  4 40  1  0  0  0  0
  5  4  1  0  0  0  0
  5 41  1  0  0  0  0
  6  5  2  0  0  0  0
  7  8  2  0  0  0  0
  7  6  1  0  0  0  0
  8  3  1  0  0  0  0
  9  6  1  0  0  0  0
  9 10  1  0  0  0  0
 10 11  1  0  0  0  0
 11 12  1  0  0  0  0
 11 46  1  0  0  0  0
 11 47  1  0  0  0  0
 12 13  1  0  0  0  0
 13 15  1  0  0  0  0
 13 14  2  0  0  0  0
 15 50  1  0  0  0  0
 16 51  1  6  0  0  0
 16 17  1  0  0  0  0
 16 20  1  0  0  0  0
 16 15  1  0  0  0  0
 17 18  2  0  0  0  0
 19 17  1  0  0  0  0
 20 53  1  0  0  0  0
 20 54  1  0  0  0  0
 21 23  1  0  0  0  0
 21 20  1  0  0  0  0
 22 21  2  0  0  0  0
 23 56  1  0  0  0  0
 24 26  1  0  0  0  0
 24 57  1  1  0  0  0
 25 58  1  0  0  0  0
 25 24  1  0  0  0  0
 26 60  1  0  0  0  0
 26 59  1  0  0  0  0
 27 26  1  0  0  0  0
 28 27  1  0  0  0  0
 28 30  2  0  0  0  0
 29 28  2  0  0  0  0
 31 28  1  0  0  0  0
 31 32  2  0  0  0  0
 32 62  1  0  0  0  0
 33 32  1  0  0  0  0
 33 63  1  0  0  0  0
 34 33  2  0  0  0  0
 35 36  2  0  0  0  0
 35 34  1  0  0  0  0
 36 31  1  0  0  0  0
 38  2  1  0  0  0  0
 39  2  1  0  0  0  0
 42  7  1  0  0  0  0
 43  8  1  0  0  0  0
 44 10  1  0  0  0  0
 45 10  1  0  0  0  0
 48 12  1  0  0  0  0
 49 12  1  0  0  0  0
 52 19  1  0  0  0  0
 55 23  1  0  0  0  0
 61 27  1  0  0  0  0
 64 34  1  0  0  0  0
 65 35  1  0  0  0  0
 66 36  1  0  0  0  0
M  END
