omegapdb_1m5f_12.xyz
 OpenBabel11041815263D

 25 25  0  0  1  0  0  0  0  0999 V2000
   -0.2660   -2.6950   -1.0925 O   0  0  0  0  0  0  0  0  0  0  0  0
   -1.2900   -1.9840   -1.6354 C   0  0  0  0  0  0  0  0  0  0  0  0
   -1.7879   -2.2543   -2.6995 O   0  0  0  0  0  0  0  0  0  0  0  0
   -1.7164   -0.8901   -0.7362 C   0  0  0  0  0  0  0  0  0  0  0  0
   -2.9750   -0.4686   -0.8396 N   0  0  0  0  0  0  0  0  0  0  0  0
   -3.0991    0.5195    0.1070 O   0  0  0  0  0  0  0  0  0  0  0  0
   -1.9266    0.6847    0.7594 C   0  0  0  0  0  0  0  0  0  0  0  0
   -1.0000   -0.1988    0.2716 C   0  0  0  0  0  0  0  0  0  0  0  0
    0.4328   -0.2953    0.6598 C   0  0  0  0  0  0  0  0  0  0  0  0
    1.3200    0.5128   -0.3066 C   0  0  2  0  0  0  0  0  0  0  0  0
    1.1837   -0.0057   -1.6517 N   0  0  0  0  0  0  0  0  0  0  0  0
    2.7397    0.4645    0.2241 C   0  0  0  0  0  0  0  0  0  0  0  0
    3.6207   -0.2433   -0.2050 O   0  0  0  0  0  0  0  0  0  0  0  0
    2.9009    1.2896    1.2857 O   0  0  0  0  0  0  0  0  0  0  0  0
   -1.8867    1.7391    1.7999 C   0  0  0  0  0  0  0  0  0  0  0  0
   -0.0795   -3.3919   -1.7405 H   0  0  0  0  0  0  0  0  0  0  0  0
    0.7596   -1.3343    0.6447 H   0  0  0  0  0  0  0  0  0  0  0  0
    0.5725    0.0852    1.6712 H   0  0  0  0  0  0  0  0  0  0  0  0
    0.9840    1.5502   -0.2887 H   0  0  0  0  0  0  0  0  0  0  0  0
    1.6438    0.6133   -2.3082 H   0  0  0  0  0  0  0  0  0  0  0  0
    1.6783   -0.8896   -1.7087 H   0  0  0  0  0  0  0  0  0  0  0  0
    3.8142    1.1612    1.5848 H   0  0  0  0  0  0  0  0  0  0  0  0
   -2.0248    2.7258    1.3599 H   0  0  0  0  0  0  0  0  0  0  0  0
   -2.6730    1.5845    2.5368 H   0  0  0  0  0  0  0  0  0  0  0  0
   -0.9255    1.7210    2.3076 H   0  0  0  0  0  0  0  0  0  0  0  0
  2  1  1  0  0  0  0
  2  4  1  0  0  0  0
  3  2  2  0  0  0  0
  4  8  1  0  0  0  0
  5  4  2  0  0  0  0
  5  6  1  0  0  0  0
  6  7  1  0  0  0  0
  7 15  1  0  0  0  0
  8  9  1  0  0  0  0
  8  7  2  0  0  0  0
  9 18  1  0  0  0  0
 10 19  1  1  0  0  0
 10 12  1  0  0  0  0
 10  9  1  0  0  0  0
 11 10  1  0  0  0  0
 12 14  1  0  0  0  0
 13 12  2  0  0  0  0
 14 22  1  0  0  0  0
 15 25  1  0  0  0  0
 15 24  1  0  0  0  0
 16  1  1  0  0  0  0
 17  9  1  0  0  0  0
 20 11  1  0  0  0  0
 21 11  1  0  0  0  0
 23 15  1  0  0  0  0
M  END
