omegapdb_2f7p_17.xyz
 OpenBabel11041815263D

 34 35  0  0  1  0  0  0  0  0999 V2000
   -1.2644   -0.9420   -0.2814 C   0  0  1  0  0  0  0  0  0  0  0  0
    0.0757   -0.5568    0.1433 N   0  0  0  0  0  0  0  0  0  0  0  0
    1.0242   -0.4147   -0.9679 C   0  0  0  0  0  0  0  0  0  0  0  0
    2.3519    0.0455   -0.4415 C   0  0  0  0  0  0  0  0  0  0  0  0
    3.1151   -0.7968    0.3721 C   0  0  0  0  0  0  0  0  0  0  0  0
    4.3323   -0.3663    0.8906 C   0  0  0  0  0  0  0  0  0  0  0  0
    4.7989    0.9168    0.6038 C   0  0  0  0  0  0  0  0  0  0  0  0
    4.0438    1.7644   -0.2028 C   0  0  0  0  0  0  0  0  0  0  0  0
    2.8250    1.3282   -0.7206 C   0  0  0  0  0  0  0  0  0  0  0  0
   -2.0682   -1.4322    0.9642 C   0  0  1  0  0  0  0  0  0  0  0  0
   -1.2237   -1.7796    2.0363 O   0  0  0  0  0  0  0  0  0  0  0  0
   -2.9648   -0.2450    1.3079 C   0  0  1  0  0  0  0  0  0  0  0  0
   -2.1685    0.7801    1.8784 O   0  0  0  0  0  0  0  0  0  0  0  0
   -3.4233    0.1816   -0.0729 C   0  0  1  0  0  0  0  0  0  0  0  0
   -4.1166    1.4096   -0.0565 O   0  0  0  0  0  0  0  0  0  0  0  0
   -2.1158    0.2091   -0.8674 C   0  0  2  0  0  0  0  0  0  0  0  0
   -2.3187    0.0458   -2.6677 S   0  0  0  0  0  0  0  0  0  0  0  0
   -1.1467   -1.7585   -0.9964 H   0  0  0  0  0  0  0  0  0  0  0  0
    0.0109    0.3335    0.6323 H   0  0  0  0  0  0  0  0  0  0  0  0
    1.1164   -1.3953   -1.4399 H   0  0  0  0  0  0  0  0  0  0  0  0
    0.6678    0.2838   -1.7331 H   0  0  0  0  0  0  0  0  0  0  0  0
    2.7479   -1.7906    0.5959 H   0  0  0  0  0  0  0  0  0  0  0  0
    4.9174   -1.0279    1.5147 H   0  0  0  0  0  0  0  0  0  0  0  0
    5.7451    1.2518    1.0058 H   0  0  0  0  0  0  0  0  0  0  0  0
    4.4008    2.7600   -0.4279 H   0  0  0  0  0  0  0  0  0  0  0  0
    2.2370    1.9852   -1.3498 H   0  0  0  0  0  0  0  0  0  0  0  0
   -2.6848   -2.2911    0.6881 H   0  0  0  0  0  0  0  0  0  0  0  0
   -0.3290   -1.5912    1.6883 H   0  0  0  0  0  0  0  0  0  0  0  0
   -3.8004   -0.5079    1.9600 H   0  0  0  0  0  0  0  0  0  0  0  0
   -1.6708    0.3295    2.5759 H   0  0  0  0  0  0  0  0  0  0  0  0
   -4.0576   -0.6211   -0.4657 H   0  0  0  0  0  0  0  0  0  0  0  0
   -4.6163    1.4663   -0.8768 H   0  0  0  0  0  0  0  0  0  0  0  0
   -1.6203    1.1565   -0.6574 H   0  0  0  0  0  0  0  0  0  0  0  0
   -2.8205    1.2689   -2.8761 H   0  0  0  0  0  0  0  0  0  0  0  0
  1 18  1  6  0  0  0
  1  2  1  0  0  0  0
  1 10  1  0  0  0  0
  2 19  1  0  0  0  0
  3  4  1  0  0  0  0
  3  2  1  0  0  0  0
  4  5  1  0  0  0  0
  5 22  1  0  0  0  0
  5  6  2  0  0  0  0
  6 23  1  0  0  0  0
  7  6  1  0  0  0  0
  7 24  1  0  0  0  0
  8  7  2  0  0  0  0
  9  4  2  0  0  0  0
  9  8  1  0  0  0  0
 10 27  1  6  0  0  0
 10 12  1  0  0  0  0
 10 11  1  0  0  0  0
 12 13  1  0  0  0  0
 12 29  1  1  0  0  0
 13 30  1  0  0  0  0
 14 31  1  6  0  0  0
 14 15  1  0  0  0  0
 14 12  1  0  0  0  0
 16 33  1  1  0  0  0
 16  1  1  0  0  0  0
 16 14  1  0  0  0  0
 17 16  1  0  0  0  0
 20  3  1  0  0  0  0
 21  3  1  0  0  0  0
 25  8  1  0  0  0  0
 26  9  1  0  0  0  0
 28 11  1  0  0  0  0
 32 15  1  0  0  0  0
 34 17  1  0  0  0  0
M  END
