omegapdb_2f7p_12.xyz
 OpenBabel11041815263D

 34 35  0  0  1  0  0  0  0  0999 V2000
   -1.2478   -0.3015   -0.4343 C   0  0  1  0  0  0  0  0  0  0  0  0
    0.1033    0.2154   -0.4084 N   0  0  0  0  0  0  0  0  0  0  0  0
    1.1174   -0.8408   -0.3829 C   0  0  0  0  0  0  0  0  0  0  0  0
    2.4918   -0.2370   -0.3233 C   0  0  0  0  0  0  0  0  0  0  0  0
    3.3654   -0.5447    0.7201 C   0  0  0  0  0  0  0  0  0  0  0  0
    4.6380    0.0227    0.7726 C   0  0  0  0  0  0  0  0  0  0  0  0
    5.0449    0.9096   -0.2206 C   0  0  0  0  0  0  0  0  0  0  0  0
    4.1752    1.2280   -1.2639 C   0  0  0  0  0  0  0  0  0  0  0  0
    2.9064    0.6590   -1.3132 C   0  0  0  0  0  0  0  0  0  0  0  0
   -1.7474   -1.0764    0.7943 C   0  0  1  0  0  0  0  0  0  0  0  0
   -1.4081   -0.4470    2.0267 O   0  0  0  0  0  0  0  0  0  0  0  0
   -3.2577   -1.0528    0.5817 C   0  0  1  0  0  0  0  0  0  0  0  0
   -4.0000   -1.4252    1.7279 O   0  0  0  0  0  0  0  0  0  0  0  0
   -3.5290    0.4083    0.1699 C   0  0  1  0  0  0  0  0  0  0  0  0
   -3.6083    1.2153    1.3473 O   0  0  0  0  0  0  0  0  0  0  0  0
   -2.2685    0.8413   -0.5912 C   0  0  2  0  0  0  0  0  0  0  0  0
   -2.6436    1.2377   -2.3241 S   0  0  0  0  0  0  0  0  0  0  0  0
   -1.3341   -0.9681   -1.2974 H   0  0  0  0  0  0  0  0  0  0  0  0
    0.2149    0.7746    0.4339 H   0  0  0  0  0  0  0  0  0  0  0  0
    0.9998   -1.4220   -1.3016 H   0  0  0  0  0  0  0  0  0  0  0  0
    0.9937   -1.5327    0.4593 H   0  0  0  0  0  0  0  0  0  0  0  0
    3.0456   -1.2305    1.4948 H   0  0  0  0  0  0  0  0  0  0  0  0
    5.3056   -0.2239    1.5869 H   0  0  0  0  0  0  0  0  0  0  0  0
    6.0308    1.3520   -0.1822 H   0  0  0  0  0  0  0  0  0  0  0  0
    4.4871    1.9178   -2.0364 H   0  0  0  0  0  0  0  0  0  0  0  0
    2.2226    0.9110   -2.1130 H   0  0  0  0  0  0  0  0  0  0  0  0
   -1.3476   -2.0871    0.8516 H   0  0  0  0  0  0  0  0  0  0  0  0
   -1.9045    0.3882    2.0518 H   0  0  0  0  0  0  0  0  0  0  0  0
   -3.5252   -1.7183   -0.2407 H   0  0  0  0  0  0  0  0  0  0  0  0
   -3.3743   -1.3694    2.4632 H   0  0  0  0  0  0  0  0  0  0  0  0
   -4.4421    0.5135   -0.4187 H   0  0  0  0  0  0  0  0  0  0  0  0
   -4.2561    0.7674    1.9107 H   0  0  0  0  0  0  0  0  0  0  0  0
   -1.8884    1.7409   -0.1068 H   0  0  0  0  0  0  0  0  0  0  0  0
   -1.3596    1.3750   -2.6784 H   0  0  0  0  0  0  0  0  0  0  0  0
  1 18  1  6  0  0  0
  1  2  1  0  0  0  0
  1 10  1  0  0  0  0
  2  3  1  0  0  0  0
  2 19  1  0  0  0  0
  3  4  1  0  0  0  0
  3 21  1  0  0  0  0
  4  5  2  0  0  0  0
  5  6  1  0  0  0  0
  5 22  1  0  0  0  0
  6 23  1  0  0  0  0
  7 24  1  0  0  0  0
  7  6  2  0  0  0  0
  8  7  1  0  0  0  0
  9  8  2  0  0  0  0
  9  4  1  0  0  0  0
 10 27  1  6  0  0  0
 10 11  1  0  0  0  0
 11 28  1  0  0  0  0
 12 29  1  6  0  0  0
 12 10  1  0  0  0  0
 12 13  1  0  0  0  0
 13 30  1  0  0  0  0
 14 31  1  6  0  0  0
 14 12  1  0  0  0  0
 14 15  1  0  0  0  0
 15 32  1  0  0  0  0
 16  1  1  0  0  0  0
 16 33  1  1  0  0  0
 16 14  1  0  0  0  0
 17 16  1  0  0  0  0
 20  3  1  0  0  0  0
 25  8  1  0  0  0  0
 26  9  1  0  0  0  0
 34 17  1  0  0  0  0
M  END
