omegapdb_1xom_05.xyz
 OpenBabel11041815263D

 50 52  0  0  1  0  0  0  0  0999 V2000
    6.4645    1.0707   -0.7306 O   0  0  0  0  0  0  0  0  0  0  0  0
    5.6303    1.9357   -0.1030 C   0  0  0  0  0  0  0  0  0  0  0  0
    5.9921    3.0220    0.2889 O   0  0  0  0  0  0  0  0  0  0  0  0
    4.2468    1.3657    0.0449 C   0  0  1  0  0  0  0  0  0  0  0  0
    3.6416    0.9813   -1.3071 C   0  0  0  0  0  0  0  0  0  0  0  0
    2.2254    0.4496   -1.1224 C   0  0  0  0  0  0  0  0  0  0  0  0
    2.1788   -0.7618   -0.1659 C   0  0  2  0  0  0  0  0  0  0  0  0
    2.8440   -0.3820    1.1752 C   0  0  0  0  0  0  0  0  0  0  0  0
    4.2571    0.1553    0.9843 C   0  0  0  0  0  0  0  0  0  0  0  0
    2.9679   -1.8377   -0.7682 C   0  0  0  0  0  0  0  0  0  0  0  0
    3.6277   -2.6814   -1.2464 N   0  0  0  0  0  0  0  0  0  0  0  0
    0.7506   -1.2271    0.0529 C   0  0  0  0  0  0  0  0  0  0  0  0
    0.3220   -2.5141   -0.2628 C   0  0  0  0  0  0  0  0  0  0  0  0
   -0.9969   -2.9105   -0.0325 C   0  0  0  0  0  0  0  0  0  0  0  0
   -1.9211   -2.0198    0.5143 C   0  0  0  0  0  0  0  0  0  0  0  0
   -3.2216   -2.3051    0.7698 O   0  0  0  0  0  0  0  0  0  0  0  0
   -3.6433   -3.6226    0.4551 C   0  0  0  0  0  0  0  0  0  0  0  0
   -1.4951   -0.7167    0.8351 C   0  0  0  0  0  0  0  0  0  0  0  0
   -0.1789   -0.3395    0.6087 C   0  0  0  0  0  0  0  0  0  0  0  0
   -2.3785    0.1587    1.4108 O   0  0  0  0  0  0  0  0  0  0  0  0
   -2.8909    1.1219    0.4831 C   0  0  0  0  0  0  0  0  0  0  0  0
   -3.8100    0.5593   -0.5934 C   0  0  0  0  0  0  0  0  0  0  0  0
   -4.4850    1.8306   -1.1018 C   0  0  0  0  0  0  0  0  0  0  0  0
   -4.7822    2.6314    0.1843 C   0  0  0  0  0  0  0  0  0  0  0  0
   -3.7681    2.1189    1.2329 C   0  0  0  0  0  0  0  0  0  0  0  0
    7.3236    1.5181   -0.7649 H   0  0  0  0  0  0  0  0  0  0  0  0
    3.6483    2.1598    0.4957 H   0  0  0  0  0  0  0  0  0  0  0  0
    4.2683    0.2239   -1.7805 H   0  0  0  0  0  0  0  0  0  0  0  0
    3.6226    1.8482   -1.9696 H   0  0  0  0  0  0  0  0  0  0  0  0
    1.5899    1.2293   -0.6971 H   0  0  0  0  0  0  0  0  0  0  0  0
    1.7899    0.1612   -2.0802 H   0  0  0  0  0  0  0  0  0  0  0  0
    2.8444   -1.2549    1.8294 H   0  0  0  0  0  0  0  0  0  0  0  0
    2.2189    0.3785    1.6482 H   0  0  0  0  0  0  0  0  0  0  0  0
    4.6740    0.4380    1.9523 H   0  0  0  0  0  0  0  0  0  0  0  0
    4.9004   -0.6201    0.5644 H   0  0  0  0  0  0  0  0  0  0  0  0
    1.0154   -3.2260   -0.6899 H   0  0  0  0  0  0  0  0  0  0  0  0
   -1.2898   -3.9171   -0.2882 H   0  0  0  0  0  0  0  0  0  0  0  0
   -3.5326   -3.8299   -0.6105 H   0  0  0  0  0  0  0  0  0  0  0  0
   -4.6921   -3.6703    0.7270 H   0  0  0  0  0  0  0  0  0  0  0  0
   -3.0843   -4.3636    1.0285 H   0  0  0  0  0  0  0  0  0  0  0  0
    0.1002    0.6668    0.8950 H   0  0  0  0  0  0  0  0  0  0  0  0
   -2.0457    1.6307    0.0032 H   0  0  0  0  0  0  0  0  0  0  0  0
   -4.5324   -0.1035   -0.1145 H   0  0  0  0  0  0  0  0  0  0  0  0
   -3.2813   -0.0010   -1.3634 H   0  0  0  0  0  0  0  0  0  0  0  0
   -5.3771    1.6355   -1.6932 H   0  0  0  0  0  0  0  0  0  0  0  0
   -3.7894    2.3840   -1.7351 H   0  0  0  0  0  0  0  0  0  0  0  0
   -5.7997    2.4400    0.5205 H   0  0  0  0  0  0  0  0  0  0  0  0
   -4.6976    3.7033    0.0186 H   0  0  0  0  0  0  0  0  0  0  0  0
   -3.1835    2.9136    1.6906 H   0  0  0  0  0  0  0  0  0  0  0  0
   -4.2676    1.5731    2.0326 H   0  0  0  0  0  0  0  0  0  0  0  0
  1  2  1  0  0  0  0
  2  4  1  0  0  0  0
  2  3  2  0  0  0  0
  4 27  1  1  0  0  0
  4  9  1  0  0  0  0
  5  6  1  0  0  0  0
  5  4  1  0  0  0  0
  6 30  1  0  0  0  0
  6  7  1  0  0  0  0
  7 10  1  6  0  0  0
  7 12  1  0  0  0  0
  7  8  1  0  0  0  0
  8 33  1  0  0  0  0
  8 32  1  0  0  0  0
  9  8  1  0  0  0  0
  9 34  1  0  0  0  0
 11 10  3  0  0  0  0
 12 19  2  0  0  0  0
 13 14  2  0  0  0  0
 13 12  1  0  0  0  0
 14 15  1  0  0  0  0
 15 16  1  0  0  0  0
 15 18  2  0  0  0  0
 17 39  1  0  0  0  0
 17 16  1  0  0  0  0
 17 40  1  0  0  0  0
 18 20  1  0  0  0  0
 19 18  1  0  0  0  0
 19 41  1  0  0  0  0
 21 25  1  0  0  0  0
 21 20  1  0  0  0  0
 22 43  1  0  0  0  0
 22 21  1  0  0  0  0
 23 22  1  0  0  0  0
 23 24  1  0  0  0  0
 24 47  1  0  0  0  0
 24 25  1  0  0  0  0
 25 49  1  0  0  0  0
 25 50  1  0  0  0  0
 26  1  1  0  0  0  0
 28  5  1  0  0  0  0
 29  5  1  0  0  0  0
 31  6  1  0  0  0  0
 35  9  1  0  0  0  0
 36 13  1  0  0  0  0
 37 14  1  0  0  0  0
 38 17  1  0  0  0  0
 42 21  1  0  0  0  0
 44 22  1  0  0  0  0
 45 23  1  0  0  0  0
 46 23  1  0  0  0  0
 48 24  1  0  0  0  0
M  END
