omegapdb_1z1r_03.xyz
 OpenBabel11041815263D

 66 68  0  0  1  0  0  0  0  0999 V2000
    0.4179   -0.2496    0.3430 C   0  0  2  0  0  0  0  0  0  0  0  0
    0.4894   -1.1435   -0.9096 C   0  0  0  0  0  0  0  0  0  0  0  0
   -0.6865   -2.0738   -0.9762 C   0  0  0  0  0  0  0  0  0  0  0  0
   -1.6088   -1.9903   -2.0236 C   0  0  0  0  0  0  0  0  0  0  0  0
   -2.7571   -2.7799   -2.0355 C   0  0  0  0  0  0  0  0  0  0  0  0
   -3.0164   -3.6344   -0.9642 C   0  0  0  0  0  0  0  0  0  0  0  0
   -2.0757   -3.7778    0.0547 C   0  0  0  0  0  0  0  0  0  0  0  0
   -0.9176   -3.0070    0.0403 C   0  0  0  0  0  0  0  0  0  0  0  0
   -4.1997   -4.3249   -0.8692 O   0  0  0  0  0  0  0  0  0  0  0  0
   -5.3243   -3.4720   -0.5896 C   0  0  0  0  0  0  0  0  0  0  0  0
   -5.1457   -2.5913    0.6439 C   0  0  0  0  0  0  0  0  0  0  0  0
   -4.4617   -1.2591    0.3626 C   0  0  0  0  0  0  0  0  0  0  0  0
   -4.2439   -0.4428    1.6163 C   0  0  0  0  0  0  0  0  0  0  0  0
   -4.6686   -0.7717    2.7128 O   0  0  0  0  0  0  0  0  0  0  0  0
   -3.4787    0.6946    1.4606 N   0  0  0  0  0  0  0  0  0  0  0  0
   -3.0921    1.2929    0.2043 C   0  0  2  0  0  0  0  0  0  0  0  0
   -1.6716    0.9541   -0.2544 C   0  0  0  0  0  0  0  0  0  0  0  0
   -1.2525    1.4206   -1.3262 O   0  0  0  0  0  0  0  0  0  0  0  0
   -0.9483    0.2199    0.5926 N   0  0  0  0  0  0  0  0  0  0  0  0
   -3.1711    2.8270    0.2929 C   0  0  0  0  0  0  0  0  0  0  0  0
   -2.1879    3.3104    1.3380 C   0  0  0  0  0  0  0  0  0  0  0  0
   -2.4109    3.1749    2.5375 O   0  0  0  0  0  0  0  0  0  0  0  0
   -1.0456    3.8603    0.8562 N   0  0  0  0  0  0  0  0  0  0  0  0
    1.3898    0.9464    0.3451 C   0  0  2  0  0  0  0  0  0  0  0  0
    1.3866    1.6751   -0.8686 O   0  0  0  0  0  0  0  0  0  0  0  0
    2.8365    0.5677    0.6169 C   0  0  0  0  0  0  0  0  0  0  0  0
    3.3738   -0.1556   -0.5291 N   0  0  0  0  0  0  0  0  0  0  0  0
    4.9162   -0.7391   -0.4102 S   0  0  0  0  0  0  0  0  0  0  0  0
    4.9610   -1.5185    0.8094 O   0  0  0  0  0  0  0  0  0  0  0  0
    5.2282   -1.3021   -1.7051 O   0  0  0  0  0  0  0  0  0  0  0  0
    5.9364    0.6934   -0.1683 C   0  0  0  0  0  0  0  0  0  0  0  0
    6.2617    1.0928    1.1265 C   0  0  0  0  0  0  0  0  0  0  0  0
    7.0188    2.2491    1.3037 C   0  0  0  0  0  0  0  0  0  0  0  0
    7.4349    2.9910    0.1997 C   0  0  0  0  0  0  0  0  0  0  0  0
    7.1040    2.5754   -1.0904 C   0  0  0  0  0  0  0  0  0  0  0  0
    6.3491    1.4225   -1.2831 C   0  0  0  0  0  0  0  0  0  0  0  0
    0.6619   -0.8549    1.2174 H   0  0  0  0  0  0  0  0  0  0  0  0
    0.5162   -0.5219   -1.8021 H   0  0  0  0  0  0  0  0  0  0  0  0
    1.4301   -1.6905   -0.8677 H   0  0  0  0  0  0  0  0  0  0  0  0
   -1.4305   -1.2881   -2.8286 H   0  0  0  0  0  0  0  0  0  0  0  0
   -3.4734   -2.7035   -2.8430 H   0  0  0  0  0  0  0  0  0  0  0  0
   -2.2784   -4.4753    0.8557 H   0  0  0  0  0  0  0  0  0  0  0  0
   -0.1953   -3.1210    0.8406 H   0  0  0  0  0  0  0  0  0  0  0  0
   -6.1467   -4.1674   -0.4410 H   0  0  0  0  0  0  0  0  0  0  0  0
   -5.5509   -2.8606   -1.4693 H   0  0  0  0  0  0  0  0  0  0  0  0
   -4.5942   -3.1448    1.4039 H   0  0  0  0  0  0  0  0  0  0  0  0
   -6.1284   -2.3918    1.0721 H   0  0  0  0  0  0  0  0  0  0  0  0
   -5.0719   -0.6790   -0.3367 H   0  0  0  0  0  0  0  0  0  0  0  0
   -3.4973   -1.3989   -0.1257 H   0  0  0  0  0  0  0  0  0  0  0  0
   -3.4038    1.2901    2.2805 H   0  0  0  0  0  0  0  0  0  0  0  0
   -3.7539    0.9659   -0.5965 H   0  0  0  0  0  0  0  0  0  0  0  0
   -1.4447   -0.0945    1.4150 H   0  0  0  0  0  0  0  0  0  0  0  0
   -4.1726    3.1152    0.6044 H   0  0  0  0  0  0  0  0  0  0  0  0
   -2.9574    3.2392   -0.6895 H   0  0  0  0  0  0  0  0  0  0  0  0
   -0.8102    3.7915   -0.1181 H   0  0  0  0  0  0  0  0  0  0  0  0
   -0.3200    4.0883    1.5144 H   0  0  0  0  0  0  0  0  0  0  0  0
    1.0707    1.5856    1.1782 H   0  0  0  0  0  0  0  0  0  0  0  0
    0.4687    1.6492   -1.2103 H   0  0  0  0  0  0  0  0  0  0  0  0
    3.3935    1.4911    0.8100 H   0  0  0  0  0  0  0  0  0  0  0  0
    2.9100   -0.0705    1.4957 H   0  0  0  0  0  0  0  0  0  0  0  0
    3.2381    0.3551   -1.3969 H   0  0  0  0  0  0  0  0  0  0  0  0
    5.9477    0.4876    1.9650 H   0  0  0  0  0  0  0  0  0  0  0  0
    7.2872    2.5665    2.3018 H   0  0  0  0  0  0  0  0  0  0  0  0
    8.0245    3.8859    0.3427 H   0  0  0  0  0  0  0  0  0  0  0  0
    7.4396    3.1458   -1.9453 H   0  0  0  0  0  0  0  0  0  0  0  0
    6.1017    1.0711   -2.2751 H   0  0  0  0  0  0  0  0  0  0  0  0
  1 24  1  0  0  0  0
  1 19  1  0  0  0  0
  1 37  1  1  0  0  0
  2 39  1  0  0  0  0
  2  1  1  0  0  0  0
  3  2  1  0  0  0  0
  3  8  2  0  0  0  0
  4  3  1  0  0  0  0
  5  4  2  0  0  0  0
  5  6  1  0  0  0  0
  6  9  1  0  0  0  0
  6  7  2  0  0  0  0
  7 42  1  0  0  0  0
  8  7  1  0  0  0  0
  8 43  1  0  0  0  0
  9 10  1  0  0  0  0
 10 44  1  0  0  0  0
 10 11  1  0  0  0  0
 11 47  1  0  0  0  0
 11 46  1  0  0  0  0
 12 11  1  0  0  0  0
 12 13  1  0  0  0  0
 13 14  2  0  0  0  0
 15 13  1  0  0  0  0
 15 50  1  0  0  0  0
 16 51  1  6  0  0  0
 16 20  1  0  0  0  0
 16 15  1  0  0  0  0
 17 16  1  0  0  0  0
 17 19  1  0  0  0  0
 18 17  2  0  0  0  0
 19 52  1  0  0  0  0
 20 53  1  0  0  0  0
 20 21  1  0  0  0  0
 21 22  2  0  0  0  0
 23 21  1  0  0  0  0
 23 56  1  0  0  0  0
 24 26  1  0  0  0  0
 24 57  1  1  0  0  0
 25 24  1  0  0  0  0
 26 59  1  0  0  0  0
 26 60  1  0  0  0  0
 27 28  1  0  0  0  0
 27 26  1  0  0  0  0
 28 31  1  0  0  0  0
 28 29  2  0  0  0  0
 30 28  2  0  0  0  0
 31 32  2  0  0  0  0
 32 33  1  0  0  0  0
 32 62  1  0  0  0  0
 33 63  1  0  0  0  0
 34 64  1  0  0  0  0
 34 33  2  0  0  0  0
 35 34  1  0  0  0  0
 36 35  2  0  0  0  0
 36 31  1  0  0  0  0
 38  2  1  0  0  0  0
 40  4  1  0  0  0  0
 41  5  1  0  0  0  0
 45 10  1  0  0  0  0
 48 12  1  0  0  0  0
 49 12  1  0  0  0  0
 54 20  1  0  0  0  0
 55 23  1  0  0  0  0
 58 25  1  0  0  0  0
 61 27  1  0  0  0  0
 65 35  1  0  0  0  0
 66 36  1  0  0  0  0
M  END
