omegapdb_1xom_03.xyz
 OpenBabel11041815263D

 50 52  0  0  1  0  0  0  0  0999 V2000
    6.2837    1.1007   -0.4040 O   0  0  0  0  0  0  0  0  0  0  0  0
    5.3105    2.0429   -0.3516 C   0  0  0  0  0  0  0  0  0  0  0  0
    5.5401    3.2250   -0.4742 O   0  0  0  0  0  0  0  0  0  0  0  0
    3.9527    1.4303   -0.1473 C   0  0  1  0  0  0  0  0  0  0  0  0
    3.5348    0.6286   -1.3849 C   0  0  0  0  0  0  0  0  0  0  0  0
    2.1320    0.0623   -1.2018 C   0  0  0  0  0  0  0  0  0  0  0  0
    2.0184   -0.8203    0.0606 C   0  0  2  0  0  0  0  0  0  0  0  0
    2.4988   -0.0197    1.2910 C   0  0  0  0  0  0  0  0  0  0  0  0
    3.9014    0.5445    1.0989 C   0  0  0  0  0  0  0  0  0  0  0  0
    2.9219   -1.9594   -0.1109 C   0  0  0  0  0  0  0  0  0  0  0  0
    3.6755   -2.8468   -0.2541 N   0  0  0  0  0  0  0  0  0  0  0  0
    0.5950   -1.3124    0.2527 C   0  0  0  0  0  0  0  0  0  0  0  0
    0.2632   -2.6613    0.2589 C   0  0  0  0  0  0  0  0  0  0  0  0
   -1.0644   -3.0657    0.4315 C   0  0  0  0  0  0  0  0  0  0  0  0
   -2.0766   -2.1265    0.5965 C   0  0  0  0  0  0  0  0  0  0  0  0
   -3.3920   -2.4106    0.7623 O   0  0  0  0  0  0  0  0  0  0  0  0
   -3.7314   -3.7874    0.7739 C   0  0  0  0  0  0  0  0  0  0  0  0
   -1.7485   -0.7517    0.5965 C   0  0  0  0  0  0  0  0  0  0  0  0
   -0.4247   -0.3630    0.4237 C   0  0  0  0  0  0  0  0  0  0  0  0
   -2.7927    0.0913    0.7916 O   0  0  0  0  0  0  0  0  0  0  0  0
   -2.5714    1.4913    0.5786 C   0  0  0  0  0  0  0  0  0  0  0  0
   -2.4209    1.7864   -0.9094 C   0  0  0  0  0  0  0  0  0  0  0  0
   -3.8408    1.5700   -1.4622 C   0  0  0  0  0  0  0  0  0  0  0  0
   -4.7990    1.8051   -0.2666 C   0  0  0  0  0  0  0  0  0  0  0  0
   -3.8912    2.1578    0.9227 C   0  0  0  0  0  0  0  0  0  0  0  0
    7.1080    1.5879   -0.5542 H   0  0  0  0  0  0  0  0  0  0  0  0
    3.2671    2.2709   -0.0226 H   0  0  0  0  0  0  0  0  0  0  0  0
    3.5586    1.2680   -2.2689 H   0  0  0  0  0  0  0  0  0  0  0  0
    4.2488   -0.1811   -1.5464 H   0  0  0  0  0  0  0  0  0  0  0  0
    1.8321   -0.5246   -2.0712 H   0  0  0  0  0  0  0  0  0  0  0  0
    1.4154    0.8804   -1.0984 H   0  0  0  0  0  0  0  0  0  0  0  0
    2.4550   -0.6639    2.1702 H   0  0  0  0  0  0  0  0  0  0  0  0
    1.7901    0.7958    1.4505 H   0  0  0  0  0  0  0  0  0  0  0  0
    4.1875    1.1200    1.9808 H   0  0  0  0  0  0  0  0  0  0  0  0
    4.6218   -0.2682    0.9937 H   0  0  0  0  0  0  0  0  0  0  0  0
    1.0300   -3.4119    0.1263 H   0  0  0  0  0  0  0  0  0  0  0  0
   -1.2944   -4.1199    0.4295 H   0  0  0  0  0  0  0  0  0  0  0  0
   -3.4726   -4.2671   -0.1714 H   0  0  0  0  0  0  0  0  0  0  0  0
   -3.2345   -4.3101    1.5927 H   0  0  0  0  0  0  0  0  0  0  0  0
   -4.8056   -3.8262    0.9179 H   0  0  0  0  0  0  0  0  0  0  0  0
   -0.1847    0.6895    0.4200 H   0  0  0  0  0  0  0  0  0  0  0  0
   -1.7410    1.8377    1.1979 H   0  0  0  0  0  0  0  0  0  0  0  0
   -1.6756    1.1580   -1.3934 H   0  0  0  0  0  0  0  0  0  0  0  0
   -2.1102    2.8268   -1.0235 H   0  0  0  0  0  0  0  0  0  0  0  0
   -3.9437    0.5510   -1.8290 H   0  0  0  0  0  0  0  0  0  0  0  0
   -4.0479    2.2380   -2.2956 H   0  0  0  0  0  0  0  0  0  0  0  0
   -5.5217    2.5933   -0.4667 H   0  0  0  0  0  0  0  0  0  0  0  0
   -5.3545    0.8960   -0.0491 H   0  0  0  0  0  0  0  0  0  0  0  0
   -4.2762    1.8142    1.8803 H   0  0  0  0  0  0  0  0  0  0  0  0
   -3.7262    3.2343    0.9835 H   0  0  0  0  0  0  0  0  0  0  0  0
  1  2  1  0  0  0  0
  2  4  1  0  0  0  0
  3  2  2  0  0  0  0
  4 27  1  1  0  0  0
  4  9  1  0  0  0  0
  5  6  1  0  0  0  0
  5  4  1  0  0  0  0
  6 31  1  0  0  0  0
  6  7  1  0  0  0  0
  7 10  1  6  0  0  0
  7 12  1  0  0  0  0
  7  8  1  0  0  0  0
  8 33  1  0  0  0  0
  8 32  1  0  0  0  0
  9  8  1  0  0  0  0
  9 34  1  0  0  0  0
 11 10  3  0  0  0  0
 12 13  2  0  0  0  0
 12 19  1  0  0  0  0
 13 14  1  0  0  0  0
 14 15  2  0  0  0  0
 15 18  1  0  0  0  0
 15 16  1  0  0  0  0
 16 17  1  0  0  0  0
 17 40  1  0  0  0  0
 17 39  1  0  0  0  0
 18 20  1  0  0  0  0
 19 18  2  0  0  0  0
 21 20  1  0  0  0  0
 21 25  1  0  0  0  0
 21 42  1  0  0  0  0
 22 21  1  0  0  0  0
 23 22  1  0  0  0  0
 23 24  1  0  0  0  0
 24 48  1  0  0  0  0
 24 25  1  0  0  0  0
 25 50  1  0  0  0  0
 25 49  1  0  0  0  0
 26  1  1  0  0  0  0
 28  5  1  0  0  0  0
 29  5  1  0  0  0  0
 30  6  1  0  0  0  0
 35  9  1  0  0  0  0
 36 13  1  0  0  0  0
 37 14  1  0  0  0  0
 38 17  1  0  0  0  0
 41 19  1  0  0  0  0
 43 22  1  0  0  0  0
 44 22  1  0  0  0  0
 45 23  1  0  0  0  0
 46 23  1  0  0  0  0
 47 24  1  0  0  0  0
M  END
