omegapdb_1qxw_27.xyz
 OpenBabel11041815263D

 36 36  0  0  1  0  0  0  0  0999 V2000
    3.5337    1.4119   -0.2197 C   0  0  0  0  0  0  0  0  0  0  0  0
    2.5238    2.4597   -0.6401 C   0  0  0  0  0  0  0  0  0  0  0  0
    2.2183    1.0143   -0.8501 C   0  0  0  0  0  0  0  0  0  0  0  0
    1.1731    0.4054   -0.0806 N   0  0  0  0  0  0  0  0  0  0  0  0
    1.4691   -0.9716    0.2681 C   0  0  0  0  0  0  0  0  0  0  0  0
    0.3716   -1.6037    1.1145 C   0  0  0  0  0  0  0  0  0  0  0  0
   -0.8832   -2.0497    0.3382 C   0  0  1  0  0  0  0  0  0  0  0  0
   -1.9177   -2.5859    1.2157 N   0  0  0  0  0  0  0  0  0  0  0  0
   -1.4871   -1.0184   -0.6106 C   0  0  0  0  0  0  0  0  0  0  0  0
   -2.1554    0.1895    0.0391 C   0  0  0  0  0  0  0  0  0  0  0  0
   -2.6976    1.1759   -0.9951 C   0  0  0  0  0  0  0  0  0  0  0  0
   -1.6050    1.9087   -1.7666 C   0  0  0  0  0  0  0  0  0  0  0  0
    0.0986   -0.6823    2.1480 O   0  0  0  0  0  0  0  0  0  0  0  0
    0.8566   -2.8189    1.6711 O   0  0  0  0  0  0  0  0  0  0  0  0
    4.4420    1.3196   -0.7956 H   0  0  0  0  0  0  0  0  0  0  0  0
    3.6360    1.2324    0.8408 H   0  0  0  0  0  0  0  0  0  0  0  0
    2.7460    3.0692   -1.5017 H   0  0  0  0  0  0  0  0  0  0  0  0
    1.9816    2.9644    0.1466 H   0  0  0  0  0  0  0  0  0  0  0  0
    2.2655    0.6505   -1.8687 H   0  0  0  0  0  0  0  0  0  0  0  0
    1.0148    0.9283    0.7732 H   0  0  0  0  0  0  0  0  0  0  0  0
    2.4141   -1.0707    0.8242 H   0  0  0  0  0  0  0  0  0  0  0  0
    1.5773   -1.5594   -0.6459 H   0  0  0  0  0  0  0  0  0  0  0  0
   -0.5288   -2.8831   -0.2732 H   0  0  0  0  0  0  0  0  0  0  0  0
   -1.5147   -3.2166    1.8971 H   0  0  0  0  0  0  0  0  0  0  0  0
   -2.4160   -1.8514    1.7003 H   0  0  0  0  0  0  0  0  0  0  0  0
   -0.7078   -0.6744   -1.2870 H   0  0  0  0  0  0  0  0  0  0  0  0
   -2.2361   -1.5476   -1.2052 H   0  0  0  0  0  0  0  0  0  0  0  0
   -1.4478    0.7029    0.6895 H   0  0  0  0  0  0  0  0  0  0  0  0
   -2.9899   -0.1433    0.6621 H   0  0  0  0  0  0  0  0  0  0  0  0
   -3.3267    1.9104   -0.4887 H   0  0  0  0  0  0  0  0  0  0  0  0
   -3.3483    0.6419   -1.6924 H   0  0  0  0  0  0  0  0  0  0  0  0
   -0.9506    2.4507   -1.0845 H   0  0  0  0  0  0  0  0  0  0  0  0
   -0.9796    1.2220   -2.3336 H   0  0  0  0  0  0  0  0  0  0  0  0
   -2.0358    2.6241   -2.4664 H   0  0  0  0  0  0  0  0  0  0  0  0
   -0.6688   -1.0327    2.6186 H   0  0  0  0  0  0  0  0  0  0  0  0
    1.5752   -2.5719    2.2656 H   0  0  0  0  0  0  0  0  0  0  0  0
  1 16  1  0  0  0  0
  2  1  1  0  0  0  0
  2 18  1  0  0  0  0
  3  2  1  0  0  0  0
  3  1  1  0  0  0  0
  3  4  1  0  0  0  0
  4  5  1  0  0  0  0
  4 20  1  0  0  0  0
  5 21  1  0  0  0  0
  5  6  1  0  0  0  0
  6 14  1  0  0  0  0
  6 13  1  0  0  0  0
  7 23  1  6  0  0  0
  7  6  1  0  0  0  0
  7  8  1  0  0  0  0
  8 25  1  0  0  0  0
  8 24  1  0  0  0  0
  9 10  1  0  0  0  0
  9  7  1  0  0  0  0
 10 29  1  0  0  0  0
 10 28  1  0  0  0  0
 11 30  1  0  0  0  0
 11 10  1  0  0  0  0
 12 32  1  0  0  0  0
 12 11  1  0  0  0  0
 13 35  1  0  0  0  0
 14 36  1  0  0  0  0
 15  1  1  0  0  0  0
 17  2  1  0  0  0  0
 19  3  1  0  0  0  0
 22  5  1  0  0  0  0
 26  9  1  0  0  0  0
 27  9  1  0  0  0  0
 31 11  1  0  0  0  0
 33 12  1  0  0  0  0
 34 12  1  0  0  0  0
M  END
