omegapdb_2f7p_07.xyz
 OpenBabel11041815263D

 34 35  0  0  1  0  0  0  0  0999 V2000
   -1.1345   -0.7631    0.2952 C   0  0  1  0  0  0  0  0  0  0  0  0
    0.2216   -0.3242    0.5040 N   0  0  0  0  0  0  0  0  0  0  0  0
    1.1295   -0.6305   -0.5926 C   0  0  0  0  0  0  0  0  0  0  0  0
    2.5249   -0.1651   -0.2751 C   0  0  0  0  0  0  0  0  0  0  0  0
    3.3082    0.4465   -1.2553 C   0  0  0  0  0  0  0  0  0  0  0  0
    4.6112    0.8533   -0.9744 C   0  0  0  0  0  0  0  0  0  0  0  0
    5.1420    0.6567    0.2983 C   0  0  0  0  0  0  0  0  0  0  0  0
    4.3639    0.0529    1.2853 C   0  0  0  0  0  0  0  0  0  0  0  0
    3.0639   -0.3564    1.0005 C   0  0  0  0  0  0  0  0  0  0  0  0
   -2.0399   -0.3202    1.4463 C   0  0  1  0  0  0  0  0  0  0  0  0
   -1.8155    1.0294    1.8460 O   0  0  0  0  0  0  0  0  0  0  0  0
   -3.4409   -0.4612    0.8561 C   0  0  1  0  0  0  0  0  0  0  0  0
   -4.4379    0.2058    1.6080 O   0  0  0  0  0  0  0  0  0  0  0  0
   -3.2831    0.1430   -0.5477 C   0  0  1  0  0  0  0  0  0  0  0  0
   -3.2915    1.5722   -0.4470 O   0  0  0  0  0  0  0  0  0  0  0  0
   -1.8785   -0.2766   -0.9940 C   0  0  2  0  0  0  0  0  0  0  0  0
   -1.8820   -1.6477   -2.1878 S   0  0  0  0  0  0  0  0  0  0  0  0
   -1.1310   -1.8593    0.2846 H   0  0  0  0  0  0  0  0  0  0  0  0
    0.2319    0.6680    0.7151 H   0  0  0  0  0  0  0  0  0  0  0  0
    1.1198   -1.7164   -0.7291 H   0  0  0  0  0  0  0  0  0  0  0  0
    0.8211   -0.1990   -1.5537 H   0  0  0  0  0  0  0  0  0  0  0  0
    2.8936    0.6061   -2.2431 H   0  0  0  0  0  0  0  0  0  0  0  0
    5.2059    1.3272   -1.7434 H   0  0  0  0  0  0  0  0  0  0  0  0
    6.1511    0.9754    0.5207 H   0  0  0  0  0  0  0  0  0  0  0  0
    4.7700   -0.0990    2.2762 H   0  0  0  0  0  0  0  0  0  0  0  0
    2.4501   -0.8160    1.7629 H   0  0  0  0  0  0  0  0  0  0  0  0
   -1.8821   -0.9260    2.3355 H   0  0  0  0  0  0  0  0  0  0  0  0
   -2.0932    1.5778    1.0922 H   0  0  0  0  0  0  0  0  0  0  0  0
   -3.7054   -1.5164    0.7710 H   0  0  0  0  0  0  0  0  0  0  0  0
   -3.9516    0.7842    2.2120 H   0  0  0  0  0  0  0  0  0  0  0  0
   -4.0599   -0.1853   -1.2386 H   0  0  0  0  0  0  0  0  0  0  0  0
   -4.1049    1.7792    0.0362 H   0  0  0  0  0  0  0  0  0  0  0  0
   -1.3721    0.5849   -1.4289 H   0  0  0  0  0  0  0  0  0  0  0  0
   -2.5047   -1.0000   -3.1800 H   0  0  0  0  0  0  0  0  0  0  0  0
  1 18  1  6  0  0  0
  1  2  1  0  0  0  0
  1 10  1  0  0  0  0
  2 19  1  0  0  0  0
  3  4  1  0  0  0  0
  3  2  1  0  0  0  0
  4  9  2  0  0  0  0
  5  6  2  0  0  0  0
  5  4  1  0  0  0  0
  6  7  1  0  0  0  0
  7 24  1  0  0  0  0
  7  8  2  0  0  0  0
  8 25  1  0  0  0  0
  9  8  1  0  0  0  0
  9 26  1  0  0  0  0
 10 11  1  0  0  0  0
 10 27  1  1  0  0  0
 12 29  1  6  0  0  0
 12 10  1  0  0  0  0
 12 13  1  0  0  0  0
 13 30  1  0  0  0  0
 14 31  1  6  0  0  0
 14 15  1  0  0  0  0
 14 12  1  0  0  0  0
 15 32  1  0  0  0  0
 16 33  1  6  0  0  0
 16 14  1  0  0  0  0
 16  1  1  0  0  0  0
 17 16  1  0  0  0  0
 20  3  1  0  0  0  0
 21  3  1  0  0  0  0
 22  5  1  0  0  0  0
 23  6  1  0  0  0  0
 28 11  1  0  0  0  0
 34 17  1  0  0  0  0
M  END
