omegapdb_1gs5_21.xyz
 OpenBabel11041815263D

 24 23  0  0  1  0  0  0  0  0999 V2000
   -0.2782   -0.5946   -0.2841 C   0  0  2  0  0  0  0  0  0  0  0  0
   -1.3215   -1.3955    0.5069 C   0  0  0  0  0  0  0  0  0  0  0  0
   -2.4941   -1.4312    0.2321 O   0  0  0  0  0  0  0  0  0  0  0  0
   -0.8093   -2.0783    1.5444 O   0  0  0  0  0  0  0  0  0  0  0  0
    0.4387    0.4542    0.5943 C   0  0  0  0  0  0  0  0  0  0  0  0
    1.9394    0.4513    0.3619 C   0  0  0  0  0  0  0  0  0  0  0  0
    2.5806   -0.8109    0.8894 C   0  0  0  0  0  0  0  0  0  0  0  0
    1.9749   -1.7109    1.4307 O   0  0  0  0  0  0  0  0  0  0  0  0
    3.9130   -0.9121    0.7369 O   0  0  0  0  0  0  0  0  0  0  0  0
   -0.7799   -0.0395   -1.5173 N   0  0  0  0  0  0  0  0  0  0  0  0
   -1.8958    0.7667   -1.6734 C   0  0  0  0  0  0  0  0  0  0  0  0
   -2.4046    0.8857   -2.7752 O   0  0  0  0  0  0  0  0  0  0  0  0
   -2.3848    1.5614   -0.4889 C   0  0  0  0  0  0  0  0  0  0  0  0
    0.4646   -1.3382   -0.5801 H   0  0  0  0  0  0  0  0  0  0  0  0
    0.1621   -1.9678    1.5679 H   0  0  0  0  0  0  0  0  0  0  0  0
    0.0431    1.4358    0.3522 H   0  0  0  0  0  0  0  0  0  0  0  0
    0.2418    0.2761    1.6507 H   0  0  0  0  0  0  0  0  0  0  0  0
    2.1615    0.5409   -0.7051 H   0  0  0  0  0  0  0  0  0  0  0  0
    2.4169    1.3009    0.8555 H   0  0  0  0  0  0  0  0  0  0  0  0
    4.2445   -0.1204    0.2959 H   0  0  0  0  0  0  0  0  0  0  0  0
   -0.6486   -0.6088   -2.3409 H   0  0  0  0  0  0  0  0  0  0  0  0
   -1.9149    2.5448   -0.5110 H   0  0  0  0  0  0  0  0  0  0  0  0
   -2.1951    1.0934    0.4698 H   0  0  0  0  0  0  0  0  0  0  0  0
   -3.4543    1.6969   -0.6126 H   0  0  0  0  0  0  0  0  0  0  0  0
  1 14  1  6  0  0  0
  1  2  1  0  0  0  0
  1  5  1  0  0  0  0
  2  4  1  0  0  0  0
  3  2  2  0  0  0  0
  4 15  1  0  0  0  0
  5 17  1  0  0  0  0
  6  5  1  0  0  0  0
  6 19  1  0  0  0  0
  6  7  1  0  0  0  0
  7  8  2  0  0  0  0
  9  7  1  0  0  0  0
 10  1  1  0  0  0  0
 11 10  1  0  0  0  0
 11 13  1  0  0  0  0
 12 11  2  0  0  0  0
 13 23  1  0  0  0  0
 16  5  1  0  0  0  0
 18  6  1  0  0  0  0
 20  9  1  0  0  0  0
 21 10  1  0  0  0  0
 22 13  1  0  0  0  0
 24 13  1  0  0  0  0
M  END
