omegapdb_1qxw_20.xyz
 OpenBabel11041815263D

 36 36  0  0  1  0  0  0  0  0999 V2000
    2.3947    2.2047   -0.1781 C   0  0  0  0  0  0  0  0  0  0  0  0
    2.8781    1.6616   -1.5004 C   0  0  0  0  0  0  0  0  0  0  0  0
    2.8344    0.7735   -0.2938 C   0  0  0  0  0  0  0  0  0  0  0  0
    1.7976   -0.2166   -0.2506 N   0  0  0  0  0  0  0  0  0  0  0  0
    1.4673   -0.6111    1.1086 C   0  0  0  0  0  0  0  0  0  0  0  0
    0.3572   -1.6476    1.1204 C   0  0  0  0  0  0  0  0  0  0  0  0
   -0.9046   -1.2301    0.3504 C   0  0  1  0  0  0  0  0  0  0  0  0
   -1.9326   -2.2682    0.3609 N   0  0  0  0  0  0  0  0  0  0  0  0
   -1.4862    0.0770    0.8774 C   0  0  0  0  0  0  0  0  0  0  0  0
   -2.7247    0.5357    0.1102 C   0  0  0  0  0  0  0  0  0  0  0  0
   -2.5121    0.6615   -1.3970 C   0  0  0  0  0  0  0  0  0  0  0  0
   -1.3442    1.5685   -1.7700 C   0  0  0  0  0  0  0  0  0  0  0  0
    0.9346   -2.8076    0.5477 O   0  0  0  0  0  0  0  0  0  0  0  0
   -0.0552   -1.9154    2.4471 O   0  0  0  0  0  0  0  0  0  0  0  0
    3.0327    2.8942    0.3523 H   0  0  0  0  0  0  0  0  0  0  0  0
    1.3328    2.3708   -0.0793 H   0  0  0  0  0  0  0  0  0  0  0  0
    2.1294    1.4762   -2.2547 H   0  0  0  0  0  0  0  0  0  0  0  0
    3.8426    1.9836   -1.8607 H   0  0  0  0  0  0  0  0  0  0  0  0
    3.7882    0.5260    0.1674 H   0  0  0  0  0  0  0  0  0  0  0  0
    2.0825   -1.0423   -0.7670 H   0  0  0  0  0  0  0  0  0  0  0  0
    2.3217   -1.0439    1.6523 H   0  0  0  0  0  0  0  0  0  0  0  0
    1.1394    0.2676    1.6599 H   0  0  0  0  0  0  0  0  0  0  0  0
   -0.5875   -1.0861   -0.6812 H   0  0  0  0  0  0  0  0  0  0  0  0
   -2.0443   -2.6436    1.2951 H   0  0  0  0  0  0  0  0  0  0  0  0
   -1.7211   -3.0271   -0.2724 H   0  0  0  0  0  0  0  0  0  0  0  0
   -1.7332   -0.0488    1.9337 H   0  0  0  0  0  0  0  0  0  0  0  0
   -0.7177    0.8485    0.8214 H   0  0  0  0  0  0  0  0  0  0  0  0
   -3.5375   -0.1647    0.2971 H   0  0  0  0  0  0  0  0  0  0  0  0
   -3.0346    1.5059    0.5073 H   0  0  0  0  0  0  0  0  0  0  0  0
   -2.3607   -0.3313   -1.8249 H   0  0  0  0  0  0  0  0  0  0  0  0
   -3.4298    1.0460   -1.8458 H   0  0  0  0  0  0  0  0  0  0  0  0
   -1.4607    2.5543   -1.3162 H   0  0  0  0  0  0  0  0  0  0  0  0
   -1.2818    1.7062   -2.8490 H   0  0  0  0  0  0  0  0  0  0  0  0
   -0.3941    1.1543   -1.4327 H   0  0  0  0  0  0  0  0  0  0  0  0
    0.2170   -3.4487    0.4704 H   0  0  0  0  0  0  0  0  0  0  0  0
    0.7124   -2.2829    2.9014 H   0  0  0  0  0  0  0  0  0  0  0  0
  1 16  1  0  0  0  0
  1 15  1  0  0  0  0
  2  3  1  0  0  0  0
  2  1  1  0  0  0  0
  3  4  1  0  0  0  0
  3  1  1  0  0  0  0
  3 19  1  0  0  0  0
  4  5  1  0  0  0  0
  5  6  1  0  0  0  0
  5 21  1  0  0  0  0
  5 22  1  0  0  0  0
  6 14  1  0  0  0  0
  7 23  1  6  0  0  0
  7  8  1  0  0  0  0
  7  9  1  0  0  0  0
  7  6  1  0  0  0  0
  8 24  1  0  0  0  0
  9 26  1  0  0  0  0
 10 28  1  0  0  0  0
 10 29  1  0  0  0  0
 10  9  1  0  0  0  0
 11 10  1  0  0  0  0
 12 34  1  0  0  0  0
 12 11  1  0  0  0  0
 12 32  1  0  0  0  0
 13  6  1  0  0  0  0
 14 36  1  0  0  0  0
 17  2  1  0  0  0  0
 18  2  1  0  0  0  0
 20  4  1  0  0  0  0
 25  8  1  0  0  0  0
 27  9  1  0  0  0  0
 30 11  1  0  0  0  0
 31 11  1  0  0  0  0
 33 12  1  0  0  0  0
 35 13  1  0  0  0  0
M  END
