omegapdb_1gs5_18.xyz
 OpenBabel11041815263D

 24 23  0  0  1  0  0  0  0  0999 V2000
   -0.1387   -0.6007    0.0969 C   0  0  2  0  0  0  0  0  0  0  0  0
   -1.1259   -1.7410    0.2714 C   0  0  0  0  0  0  0  0  0  0  0  0
   -2.3105   -1.6152    0.4667 O   0  0  0  0  0  0  0  0  0  0  0  0
   -0.4941   -2.9344    0.2222 O   0  0  0  0  0  0  0  0  0  0  0  0
    0.7273   -0.4743    1.3503 C   0  0  0  0  0  0  0  0  0  0  0  0
    1.7988    0.6045    1.2106 C   0  0  0  0  0  0  0  0  0  0  0  0
    2.7070    0.4288    0.0108 C   0  0  0  0  0  0  0  0  0  0  0  0
    2.9857    1.3098   -0.7583 O   0  0  0  0  0  0  0  0  0  0  0  0
    3.2344   -0.8155   -0.1577 O   0  0  0  0  0  0  0  0  0  0  0  0
   -0.8186    0.6350   -0.1831 N   0  0  0  0  0  0  0  0  0  0  0  0
   -1.3639    0.7977   -1.4411 C   0  0  0  0  0  0  0  0  0  0  0  0
   -1.0780    0.0542   -2.3644 O   0  0  0  0  0  0  0  0  0  0  0  0
   -2.3186    1.9547   -1.5709 C   0  0  0  0  0  0  0  0  0  0  0  0
    0.4806   -0.8375   -0.7682 H   0  0  0  0  0  0  0  0  0  0  0  0
   -1.1814   -3.6062    0.3489 H   0  0  0  0  0  0  0  0  0  0  0  0
    0.0911   -0.2353    2.2059 H   0  0  0  0  0  0  0  0  0  0  0  0
    1.1630   -1.4511    1.5674 H   0  0  0  0  0  0  0  0  0  0  0  0
    2.4234    0.6173    2.1064 H   0  0  0  0  0  0  0  0  0  0  0  0
    1.3449    1.5853    1.1071 H   0  0  0  0  0  0  0  0  0  0  0  0
    2.9094   -1.3993    0.5371 H   0  0  0  0  0  0  0  0  0  0  0  0
   -1.3370    1.0460    0.5781 H   0  0  0  0  0  0  0  0  0  0  0  0
   -2.1016    2.7482   -0.8600 H   0  0  0  0  0  0  0  0  0  0  0  0
   -2.2679    2.3401   -2.5838 H   0  0  0  0  0  0  0  0  0  0  0  0
   -3.3294    1.5892   -1.3924 H   0  0  0  0  0  0  0  0  0  0  0  0
  1 14  1  6  0  0  0
  1  2  1  0  0  0  0
  1  5  1  0  0  0  0
  2  3  2  0  0  0  0
  4  2  1  0  0  0  0
  4 15  1  0  0  0  0
  5 17  1  0  0  0  0
  5 16  1  0  0  0  0
  6  5  1  0  0  0  0
  6 18  1  0  0  0  0
  7  6  1  0  0  0  0
  8  7  2  0  0  0  0
  9  7  1  0  0  0  0
  9 20  1  0  0  0  0
 10  1  1  0  0  0  0
 10 21  1  0  0  0  0
 11 10  1  0  0  0  0
 12 11  2  0  0  0  0
 13 11  1  0  0  0  0
 13 24  1  0  0  0  0
 13 22  1  0  0  0  0
 19  6  1  0  0  0  0
 23 13  1  0  0  0  0
M  END
