omegapdb_1qxw_29.xyz
 OpenBabel11041815263D

 36 36  0  0  1  0  0  0  0  0999 V2000
    3.2397    2.3441   -0.6541 C   0  0  0  0  0  0  0  0  0  0  0  0
    3.9801    1.0488   -0.9156 C   0  0  0  0  0  0  0  0  0  0  0  0
    3.0908    1.2027    0.2959 C   0  0  0  0  0  0  0  0  0  0  0  0
    1.8232    0.5321    0.3952 N   0  0  0  0  0  0  0  0  0  0  0  0
    1.9882   -0.9006    0.6045 C   0  0  0  0  0  0  0  0  0  0  0  0
    0.7477   -1.6390    1.1050 C   0  0  0  0  0  0  0  0  0  0  0  0
   -0.4997   -1.5102    0.2077 C   0  0  1  0  0  0  0  0  0  0  0  0
   -1.3341   -2.6899    0.4846 N   0  0  0  0  0  0  0  0  0  0  0  0
   -1.2510   -0.1945    0.3894 C   0  0  0  0  0  0  0  0  0  0  0  0
   -2.2822    0.0539   -0.7032 C   0  0  0  0  0  0  0  0  0  0  0  0
   -3.0573    1.3488   -0.4961 C   0  0  0  0  0  0  0  0  0  0  0  0
   -4.0808    1.5991   -1.5955 C   0  0  0  0  0  0  0  0  0  0  0  0
    1.1505   -2.9795    1.1594 O   0  0  0  0  0  0  0  0  0  0  0  0
    0.3345   -1.1906    2.3855 O   0  0  0  0  0  0  0  0  0  0  0  0
    3.8083    3.2044   -0.3383 H   0  0  0  0  0  0  0  0  0  0  0  0
    2.3954    2.5683   -1.2899 H   0  0  0  0  0  0  0  0  0  0  0  0
    3.6078    0.4257   -1.7157 H   0  0  0  0  0  0  0  0  0  0  0  0
    5.0511    1.0380   -0.7822 H   0  0  0  0  0  0  0  0  0  0  0  0
    3.5901    1.2959    1.2510 H   0  0  0  0  0  0  0  0  0  0  0  0
    1.3111    0.6933   -0.4649 H   0  0  0  0  0  0  0  0  0  0  0  0
    2.7506   -1.0362    1.3746 H   0  0  0  0  0  0  0  0  0  0  0  0
    2.3474   -1.4277   -0.2865 H   0  0  0  0  0  0  0  0  0  0  0  0
   -0.1532   -1.6074   -0.8253 H   0  0  0  0  0  0  0  0  0  0  0  0
   -1.9608   -2.8779   -0.2855 H   0  0  0  0  0  0  0  0  0  0  0  0
   -1.9065   -2.5052    1.3010 H   0  0  0  0  0  0  0  0  0  0  0  0
   -1.7386   -0.2241    1.3662 H   0  0  0  0  0  0  0  0  0  0  0  0
   -0.5495    0.6369    0.4412 H   0  0  0  0  0  0  0  0  0  0  0  0
   -2.9911   -0.7778   -0.7491 H   0  0  0  0  0  0  0  0  0  0  0  0
   -1.7828    0.0872   -1.6772 H   0  0  0  0  0  0  0  0  0  0  0  0
   -3.5568    1.3128    0.4744 H   0  0  0  0  0  0  0  0  0  0  0  0
   -2.3530    2.1820   -0.4476 H   0  0  0  0  0  0  0  0  0  0  0  0
   -4.8069    0.7875   -1.6406 H   0  0  0  0  0  0  0  0  0  0  0  0
   -4.6268    2.5269   -1.4333 H   0  0  0  0  0  0  0  0  0  0  0  0
   -3.5956    1.6627   -2.5694 H   0  0  0  0  0  0  0  0  0  0  0  0
    0.3112   -3.4669    1.0411 H   0  0  0  0  0  0  0  0  0  0  0  0
    0.9983   -1.5238    3.0005 H   0  0  0  0  0  0  0  0  0  0  0  0
  1 15  1  0  0  0  0
  1  3  1  0  0  0  0
  2 18  1  0  0  0  0
  2  1  1  0  0  0  0
  2  3  1  0  0  0  0
  3  4  1  0  0  0  0
  3 19  1  0  0  0  0
  4  5  1  0  0  0  0
  5  6  1  0  0  0  0
  5 21  1  0  0  0  0
  6 13  1  0  0  0  0
  6 14  1  0  0  0  0
  7 23  1  6  0  0  0
  7  9  1  0  0  0  0
  7  8  1  0  0  0  0
  7  6  1  0  0  0  0
  8 25  1  0  0  0  0
  9 27  1  0  0  0  0
  9 26  1  0  0  0  0
 10 11  1  0  0  0  0
 10  9  1  0  0  0  0
 11 31  1  0  0  0  0
 11 30  1  0  0  0  0
 12 33  1  0  0  0  0
 12 11  1  0  0  0  0
 14 36  1  0  0  0  0
 16  1  1  0  0  0  0
 17  2  1  0  0  0  0
 20  4  1  0  0  0  0
 22  5  1  0  0  0  0
 24  8  1  0  0  0  0
 28 10  1  0  0  0  0
 29 10  1  0  0  0  0
 32 12  1  0  0  0  0
 34 12  1  0  0  0  0
 35 13  1  0  0  0  0
M  END
