omegapdb_1m5f_05.xyz
 OpenBabel11041815263D

 25 25  0  0  1  0  0  0  0  0999 V2000
   -1.6902   -3.6375   -0.9393 O   0  0  0  0  0  0  0  0  0  0  0  0
   -0.8304   -2.6063   -0.9599 C   0  0  0  0  0  0  0  0  0  0  0  0
    0.3080   -2.7182   -1.3487 O   0  0  0  0  0  0  0  0  0  0  0  0
   -1.3867   -1.3242   -0.4661 C   0  0  0  0  0  0  0  0  0  0  0  0
   -2.6324   -1.3056   -0.0018 N   0  0  0  0  0  0  0  0  0  0  0  0
   -2.8700   -0.0125    0.3728 O   0  0  0  0  0  0  0  0  0  0  0  0
   -1.7662    0.7390    0.1314 C   0  0  0  0  0  0  0  0  0  0  0  0
   -0.7798   -0.0462   -0.4129 C   0  0  0  0  0  0  0  0  0  0  0  0
    0.5931    0.3634   -0.8204 C   0  0  0  0  0  0  0  0  0  0  0  0
    1.6729   -0.1411    0.1491 C   0  0  2  0  0  0  0  0  0  0  0  0
    1.3696    0.3049    1.5116 N   0  0  0  0  0  0  0  0  0  0  0  0
    2.9864    0.4877   -0.3118 C   0  0  0  0  0  0  0  0  0  0  0  0
    3.6035    0.0936   -1.2691 O   0  0  0  0  0  0  0  0  0  0  0  0
    3.3498    1.5623    0.4097 O   0  0  0  0  0  0  0  0  0  0  0  0
   -1.8616    2.1763    0.4778 C   0  0  0  0  0  0  0  0  0  0  0  0
   -2.5359   -3.3123   -0.5895 H   0  0  0  0  0  0  0  0  0  0  0  0
    0.6413    1.4529   -0.8666 H   0  0  0  0  0  0  0  0  0  0  0  0
    0.8316   -0.0284   -1.8073 H   0  0  0  0  0  0  0  0  0  0  0  0
    1.7573   -1.2213    0.0377 H   0  0  0  0  0  0  0  0  0  0  0  0
    1.8411   -0.2847    2.1878 H   0  0  0  0  0  0  0  0  0  0  0  0
    0.3766    0.2129    1.6943 H   0  0  0  0  0  0  0  0  0  0  0  0
    2.6750    1.6100    1.1204 H   0  0  0  0  0  0  0  0  0  0  0  0
   -2.6567    2.6576   -0.0891 H   0  0  0  0  0  0  0  0  0  0  0  0
   -0.9216    2.6721    0.2518 H   0  0  0  0  0  0  0  0  0  0  0  0
   -2.0745    2.3056    1.5378 H   0  0  0  0  0  0  0  0  0  0  0  0
  1 16  1  0  0  0  0
  2  1  1  0  0  0  0
  2  4  1  0  0  0  0
  3  2  2  0  0  0  0
  4  8  1  0  0  0  0
  4  5  2  0  0  0  0
  5  6  1  0  0  0  0
  7  6  1  0  0  0  0
  7 15  1  0  0  0  0
  8  7  2  0  0  0  0
  9  8  1  0  0  0  0
  9 10  1  0  0  0  0
 10 19  1  6  0  0  0
 10 11  1  0  0  0  0
 11 21  1  0  0  0  0
 11 20  1  0  0  0  0
 12 10  1  0  0  0  0
 12 14  1  0  0  0  0
 13 12  2  0  0  0  0
 14 22  1  0  0  0  0
 15 25  1  0  0  0  0
 17  9  1  0  0  0  0
 18  9  1  0  0  0  0
 23 15  1  0  0  0  0
 24 15  1  0  0  0  0
M  END
