omegapdb_1gs5_07.xyz
 OpenBabel11041815263D

 24 23  0  0  1  0  0  0  0  0999 V2000
   -0.4692   -1.2859   -0.4699 C   0  0  2  0  0  0  0  0  0  0  0  0
   -0.9240   -1.9485    0.8386 C   0  0  0  0  0  0  0  0  0  0  0  0
   -0.7518   -3.1385    0.9739 O   0  0  0  0  0  0  0  0  0  0  0  0
   -1.4299   -1.1848    1.8009 O   0  0  0  0  0  0  0  0  0  0  0  0
    1.0267   -0.9545   -0.4041 C   0  0  0  0  0  0  0  0  0  0  0  0
    1.4377   -0.0040    0.7087 C   0  0  0  0  0  0  0  0  0  0  0  0
    2.9118    0.2836    0.6554 C   0  0  0  0  0  0  0  0  0  0  0  0
    3.6750   -0.0786   -0.2106 O   0  0  0  0  0  0  0  0  0  0  0  0
    3.3033    1.0294    1.7138 O   0  0  0  0  0  0  0  0  0  0  0  0
   -1.2894   -0.1865   -0.9945 N   0  0  0  0  0  0  0  0  0  0  0  0
   -1.6775    0.9569   -0.3928 C   0  0  0  0  0  0  0  0  0  0  0  0
   -1.4795    1.2001    0.8041 O   0  0  0  0  0  0  0  0  0  0  0  0
   -2.3861    1.9548   -1.2684 C   0  0  0  0  0  0  0  0  0  0  0  0
   -0.5809   -2.0808   -1.2034 H   0  0  0  0  0  0  0  0  0  0  0  0
   -1.4243   -0.2313    1.5174 H   0  0  0  0  0  0  0  0  0  0  0  0
    1.5578   -1.8987   -0.2833 H   0  0  0  0  0  0  0  0  0  0  0  0
    1.3307   -0.5444   -1.3670 H   0  0  0  0  0  0  0  0  0  0  0  0
    1.2074   -0.4101    1.6942 H   0  0  0  0  0  0  0  0  0  0  0  0
    0.9134    0.9493    0.6517 H   0  0  0  0  0  0  0  0  0  0  0  0
    4.2542    1.1716    1.5934 H   0  0  0  0  0  0  0  0  0  0  0  0
   -1.5283   -0.2679   -1.9680 H   0  0  0  0  0  0  0  0  0  0  0  0
   -1.7721    2.8510   -1.3279 H   0  0  0  0  0  0  0  0  0  0  0  0
   -2.5826    1.5893   -2.2725 H   0  0  0  0  0  0  0  0  0  0  0  0
   -3.3224    2.2284   -0.7897 H   0  0  0  0  0  0  0  0  0  0  0  0
  1 14  1  6  0  0  0
  1  5  1  0  0  0  0
  1  2  1  0  0  0  0
  2  3  2  0  0  0  0
  2  4  1  0  0  0  0
  5 16  1  0  0  0  0
  5  6  1  0  0  0  0
  6 18  1  0  0  0  0
  7  6  1  0  0  0  0
  7  9  1  0  0  0  0
  8  7  2  0  0  0  0
 10  1  1  0  0  0  0
 10 11  1  0  0  0  0
 11 12  2  0  0  0  0
 13 24  1  0  0  0  0
 13 11  1  0  0  0  0
 15  4  1  0  0  0  0
 17  5  1  0  0  0  0
 19  6  1  0  0  0  0
 20  9  1  0  0  0  0
 21 10  1  0  0  0  0
 22 13  1  0  0  0  0
 23 13  1  0  0  0  0
M  END
