omegapdb_1qxw_34.xyz
 OpenBabel11041815263D

 36 36  0  0  1  0  0  0  0  0999 V2000
    3.7905    1.5685   -0.6395 C   0  0  0  0  0  0  0  0  0  0  0  0
    3.1313    0.3904   -1.3246 C   0  0  0  0  0  0  0  0  0  0  0  0
    3.6131    0.2933    0.1139 C   0  0  0  0  0  0  0  0  0  0  0  0
    2.7538    0.2599    1.2495 N   0  0  0  0  0  0  0  0  0  0  0  0
    1.9981   -0.9583    1.4833 C   0  0  0  0  0  0  0  0  0  0  0  0
    0.4806   -0.7779    1.4694 C   0  0  0  0  0  0  0  0  0  0  0  0
   -0.0749   -0.3598    0.0951 C   0  0  1  0  0  0  0  0  0  0  0  0
    0.1061   -1.5090   -0.7978 N   0  0  0  0  0  0  0  0  0  0  0  0
   -1.5518    0.0040    0.1654 C   0  0  0  0  0  0  0  0  0  0  0  0
   -2.1206    0.4805   -1.1684 C   0  0  0  0  0  0  0  0  0  0  0  0
   -3.5161    1.0869   -1.0391 C   0  0  0  0  0  0  0  0  0  0  0  0
   -4.5587    0.0922   -0.5429 C   0  0  0  0  0  0  0  0  0  0  0  0
    0.2116    0.2013    2.4434 O   0  0  0  0  0  0  0  0  0  0  0  0
   -0.1361   -1.9817    1.8663 O   0  0  0  0  0  0  0  0  0  0  0  0
    4.7827    1.8585   -0.9467 H   0  0  0  0  0  0  0  0  0  0  0  0
    3.1432    2.3874   -0.3605 H   0  0  0  0  0  0  0  0  0  0  0  0
    3.6946   -0.1291   -2.0858 H   0  0  0  0  0  0  0  0  0  0  0  0
    2.0707    0.4690   -1.5037 H   0  0  0  0  0  0  0  0  0  0  0  0
    4.5126   -0.2979    0.2374 H   0  0  0  0  0  0  0  0  0  0  0  0
    2.2025    1.0947    1.3753 H   0  0  0  0  0  0  0  0  0  0  0  0
    2.2712   -1.7075    0.7380 H   0  0  0  0  0  0  0  0  0  0  0  0
    2.2227   -1.3827    2.4637 H   0  0  0  0  0  0  0  0  0  0  0  0
    0.4775    0.5301   -0.2246 H   0  0  0  0  0  0  0  0  0  0  0  0
   -0.4254   -1.3816   -1.6491 H   0  0  0  0  0  0  0  0  0  0  0  0
    1.0771   -1.5913   -1.0762 H   0  0  0  0  0  0  0  0  0  0  0  0
   -2.1107   -0.8567    0.5351 H   0  0  0  0  0  0  0  0  0  0  0  0
   -1.6686    0.8121    0.8899 H   0  0  0  0  0  0  0  0  0  0  0  0
   -2.1744   -0.3477   -1.8808 H   0  0  0  0  0  0  0  0  0  0  0  0
   -1.4426    1.2235   -1.5974 H   0  0  0  0  0  0  0  0  0  0  0  0
   -3.8243    1.4779   -2.0100 H   0  0  0  0  0  0  0  0  0  0  0  0
   -3.4701    1.9419   -0.3607 H   0  0  0  0  0  0  0  0  0  0  0  0
   -5.5524    0.5368   -0.5336 H   0  0  0  0  0  0  0  0  0  0  0  0
   -4.5917   -0.7856   -1.1890 H   0  0  0  0  0  0  0  0  0  0  0  0
   -4.3407   -0.2476    0.4679 H   0  0  0  0  0  0  0  0  0  0  0  0
   -0.7023    0.0601    2.7159 H   0  0  0  0  0  0  0  0  0  0  0  0
   -0.2785   -2.4544    1.0283 H   0  0  0  0  0  0  0  0  0  0  0  0
  1 16  1  0  0  0  0
  1  3  1  0  0  0  0
  2  1  1  0  0  0  0
  2  3  1  0  0  0  0
  3 19  1  0  0  0  0
  3  4  1  0  0  0  0
  4 20  1  0  0  0  0
  4  5  1  0  0  0  0
  5 22  1  0  0  0  0
  6  5  1  0  0  0  0
  6 14  1  0  0  0  0
  6 13  1  0  0  0  0
  7 23  1  6  0  0  0
  7  9  1  0  0  0  0
  7  6  1  0  0  0  0
  8  7  1  0  0  0  0
  9 26  1  0  0  0  0
  9 27  1  0  0  0  0
 10 11  1  0  0  0  0
 10  9  1  0  0  0  0
 11 12  1  0  0  0  0
 11 31  1  0  0  0  0
 12 32  1  0  0  0  0
 12 34  1  0  0  0  0
 13 35  1  0  0  0  0
 15  1  1  0  0  0  0
 17  2  1  0  0  0  0
 18  2  1  0  0  0  0
 21  5  1  0  0  0  0
 24  8  1  0  0  0  0
 25  8  1  0  0  0  0
 28 10  1  0  0  0  0
 29 10  1  0  0  0  0
 30 11  1  0  0  0  0
 33 12  1  0  0  0  0
 36 14  1  0  0  0  0
M  END
