omegapdb_2f7p_10.xyz
 OpenBabel11041815263D

 34 35  0  0  1  0  0  0  0  0999 V2000
   -0.7914   -0.2684   -0.6212 C   0  0  1  0  0  0  0  0  0  0  0  0
   -0.2123    0.4359   -1.7474 N   0  0  0  0  0  0  0  0  0  0  0  0
    1.1635    0.0311   -2.0584 C   0  0  0  0  0  0  0  0  0  0  0  0
    2.0943    0.0368   -0.8728 C   0  0  0  0  0  0  0  0  0  0  0  0
    2.5049   -1.1596   -0.2810 C   0  0  0  0  0  0  0  0  0  0  0  0
    3.2701   -1.1544    0.8846 C   0  0  0  0  0  0  0  0  0  0  0  0
    3.6338    0.0564    1.4703 C   0  0  0  0  0  0  0  0  0  0  0  0
    3.2416    1.2577    0.8788 C   0  0  0  0  0  0  0  0  0  0  0  0
    2.4782    1.2453   -0.2841 C   0  0  0  0  0  0  0  0  0  0  0  0
   -0.5592    0.3620    0.7750 C   0  0  1  0  0  0  0  0  0  0  0  0
   -0.5874    1.7705    0.6352 O   0  0  0  0  0  0  0  0  0  0  0  0
   -1.7624   -0.1320    1.6365 C   0  0  1  0  0  0  0  0  0  0  0  0
   -2.4283    0.9869    2.1996 O   0  0  0  0  0  0  0  0  0  0  0  0
   -2.6903   -0.8749    0.6483 C   0  0  1  0  0  0  0  0  0  0  0  0
   -4.0378   -0.6678    1.0482 O   0  0  0  0  0  0  0  0  0  0  0  0
   -2.3134   -0.2952   -0.6992 C   0  0  2  0  0  0  0  0  0  0  0  0
   -2.9754   -1.2705   -2.0714 S   0  0  0  0  0  0  0  0  0  0  0  0
   -0.4282   -1.3011   -0.6260 H   0  0  0  0  0  0  0  0  0  0  0  0
   -0.2300    1.4249   -1.5123 H   0  0  0  0  0  0  0  0  0  0  0  0
    1.1288   -0.9727   -2.4864 H   0  0  0  0  0  0  0  0  0  0  0  0
    1.5300    0.7041   -2.8347 H   0  0  0  0  0  0  0  0  0  0  0  0
    2.2193   -2.1009   -0.7360 H   0  0  0  0  0  0  0  0  0  0  0  0
    3.5784   -2.0889    1.3338 H   0  0  0  0  0  0  0  0  0  0  0  0
    4.2228    0.0652    2.3772 H   0  0  0  0  0  0  0  0  0  0  0  0
    3.5250    2.2001    1.3275 H   0  0  0  0  0  0  0  0  0  0  0  0
    2.1569    2.1808   -0.7257 H   0  0  0  0  0  0  0  0  0  0  0  0
    0.3950    0.0608    1.2067 H   0  0  0  0  0  0  0  0  0  0  0  0
   -1.3082    2.0570    1.2214 H   0  0  0  0  0  0  0  0  0  0  0  0
   -1.4300   -0.7934    2.4361 H   0  0  0  0  0  0  0  0  0  0  0  0
   -3.3725    0.8164    2.0558 H   0  0  0  0  0  0  0  0  0  0  0  0
   -2.4521   -1.9430    0.6582 H   0  0  0  0  0  0  0  0  0  0  0  0
   -4.5987   -0.8089    0.2772 H   0  0  0  0  0  0  0  0  0  0  0  0
   -2.6808    0.7317   -0.7604 H   0  0  0  0  0  0  0  0  0  0  0  0
   -2.2844   -0.5921   -2.9978 H   0  0  0  0  0  0  0  0  0  0  0  0
  1 18  1  1  0  0  0
  1 10  1  0  0  0  0
  2 19  1  0  0  0  0
  2  1  1  0  0  0  0
  3  2  1  0  0  0  0
  3  4  1  0  0  0  0
  4  9  2  0  0  0  0
  4  5  1  0  0  0  0
  5  6  2  0  0  0  0
  6 23  1  0  0  0  0
  6  7  1  0  0  0  0
  7 24  1  0  0  0  0
  8 25  1  0  0  0  0
  8  7  2  0  0  0  0
  9  8  1  0  0  0  0
 10 27  1  1  0  0  0
 10 12  1  0  0  0  0
 11 10  1  0  0  0  0
 11 28  1  0  0  0  0
 12 13  1  0  0  0  0
 12 29  1  1  0  0  0
 14 31  1  1  0  0  0
 14 15  1  0  0  0  0
 14 12  1  0  0  0  0
 16 33  1  6  0  0  0
 16  1  1  0  0  0  0
 16 14  1  0  0  0  0
 17 16  1  0  0  0  0
 20  3  1  0  0  0  0
 21  3  1  0  0  0  0
 22  5  1  0  0  0  0
 26  9  1  0  0  0  0
 30 13  1  0  0  0  0
 32 15  1  0  0  0  0
 34 17  1  0  0  0  0
M  END
