omegapdb_1v2k_02.xyz
 OpenBabel11041815263D

 61 65  0  0  0  0  0  0  0  0999 V2000
    7.8575    2.4837    0.5845 N   0  0  0  0  0  0  0  0  0  0  0  0
    6.9002    2.2189    1.4833 C   0  0  0  0  0  0  0  0  0  0  0  0
    5.9480    1.2160    1.3592 C   0  0  0  0  0  0  0  0  0  0  0  0
    5.9502    0.3776    0.2297 C   0  0  0  0  0  0  0  0  0  0  0  0
    6.9488    0.6592   -0.7197 C   0  0  0  0  0  0  0  0  0  0  0  0
    7.8519    1.6893   -0.4944 C   0  0  0  0  0  0  0  0  0  0  0  0
    5.0644   -0.6792    0.0871 N   0  0  0  0  0  0  0  0  0  0  0  0
    3.8064   -0.6177    0.8217 C   0  0  0  0  0  0  0  0  0  0  0  0
    2.8678    0.3996    0.1768 C   0  0  0  0  0  0  0  0  0  0  0  0
    2.5855    0.0160   -1.2900 C   0  0  0  0  0  0  0  0  0  0  0  0
    3.8922   -0.2792   -2.0388 C   0  0  0  0  0  0  0  0  0  0  0  0
    4.8158   -1.2080   -1.2516 C   0  0  0  0  0  0  0  0  0  0  0  0
    1.6470   -1.1811   -1.3486 C   0  0  0  0  0  0  0  0  0  0  0  0
    2.0315   -2.3044   -1.6722 O   0  0  0  0  0  0  0  0  0  0  0  0
    0.3438   -0.9870   -0.9877 N   0  0  0  0  0  0  0  0  0  0  0  0
   -0.5194   -2.1668   -0.9943 C   0  0  0  0  0  0  0  0  0  0  0  0
   -1.8555   -1.8213   -0.3550 C   0  0  0  0  0  0  0  0  0  0  0  0
   -1.5810   -1.0711    0.8668 N   0  0  0  0  0  0  0  0  0  0  0  0
   -0.9838    0.2555    0.6515 C   0  0  0  0  0  0  0  0  0  0  0  0
   -0.3104    0.2747   -0.7200 C   0  0  0  0  0  0  0  0  0  0  0  0
   -2.7001   -1.1606    2.0859 S   0  0  0  0  0  0  0  0  0  0  0  0
   -2.1448   -0.4087    3.1907 O   0  0  0  0  0  0  0  0  0  0  0  0
   -3.0802   -2.5514    2.2015 O   0  0  0  0  0  0  0  0  0  0  0  0
   -4.0961   -0.2597    1.4648 C   0  0  0  0  0  0  0  0  0  0  0  0
   -5.0076   -0.9148    0.6613 C   0  0  0  0  0  0  0  0  0  0  0  0
   -6.0790   -0.1959    0.0904 C   0  0  0  0  0  0  0  0  0  0  0  0
   -6.1981    1.2066    0.3509 C   0  0  0  0  0  0  0  0  0  0  0  0
   -5.2485    1.8345    1.1908 C   0  0  0  0  0  0  0  0  0  0  0  0
   -4.2077    1.1198    1.7415 C   0  0  0  0  0  0  0  0  0  0  0  0
   -7.2681    1.9286   -0.2224 C   0  0  0  0  0  0  0  0  0  0  0  0
   -8.1799    1.2775   -1.0215 C   0  0  0  0  0  0  0  0  0  0  0  0
   -8.0770   -0.1045   -1.2832 C   0  0  0  0  0  0  0  0  0  0  0  0
   -7.0429   -0.8250   -0.7328 C   0  0  0  0  0  0  0  0  0  0  0  0
   -9.4918    2.1593   -1.7282 Cl  0  0  0  0  0  0  0  0  0  0  0  0
    6.8852    2.8514    2.3631 H   0  0  0  0  0  0  0  0  0  0  0  0
    5.2249    1.1001    2.1513 H   0  0  0  0  0  0  0  0  0  0  0  0
    7.0427    0.0887   -1.6302 H   0  0  0  0  0  0  0  0  0  0  0  0
    8.6166    1.8887   -1.2359 H   0  0  0  0  0  0  0  0  0  0  0  0
    3.9857   -0.3872    1.8684 H   0  0  0  0  0  0  0  0  0  0  0  0
    3.3643   -1.6152    0.7874 H   0  0  0  0  0  0  0  0  0  0  0  0
    1.9400    0.4642    0.7475 H   0  0  0  0  0  0  0  0  0  0  0  0
    3.3441    1.3826    0.2067 H   0  0  0  0  0  0  0  0  0  0  0  0
    2.1010    0.8594   -1.7861 H   0  0  0  0  0  0  0  0  0  0  0  0
    4.4101    0.6678   -2.2089 H   0  0  0  0  0  0  0  0  0  0  0  0
    3.6665   -0.7196   -3.0100 H   0  0  0  0  0  0  0  0  0  0  0  0
    5.7558   -1.3610   -1.7741 H   0  0  0  0  0  0  0  0  0  0  0  0
    4.3455   -2.1815   -1.1377 H   0  0  0  0  0  0  0  0  0  0  0  0
   -0.6631   -2.5341   -2.0134 H   0  0  0  0  0  0  0  0  0  0  0  0
   -0.0269   -2.9527   -0.4252 H   0  0  0  0  0  0  0  0  0  0  0  0
   -2.3695   -2.7394   -0.0838 H   0  0  0  0  0  0  0  0  0  0  0  0
   -2.5004   -1.2558   -1.0376 H   0  0  0  0  0  0  0  0  0  0  0  0
   -0.2633    0.4358    1.4460 H   0  0  0  0  0  0  0  0  0  0  0  0
   -1.7373    1.0507    0.6796 H   0  0  0  0  0  0  0  0  0  0  0  0
   -1.0532    0.4757   -1.4966 H   0  0  0  0  0  0  0  0  0  0  0  0
    0.4075    1.0871   -0.7488 H   0  0  0  0  0  0  0  0  0  0  0  0
   -4.9198   -1.9814    0.4983 H   0  0  0  0  0  0  0  0  0  0  0  0
   -5.3545    2.8908    1.4044 H   0  0  0  0  0  0  0  0  0  0  0  0
   -3.4981    1.5836    2.4119 H   0  0  0  0  0  0  0  0  0  0  0  0
   -7.3702    2.9884   -0.0316 H   0  0  0  0  0  0  0  0  0  0  0  0
   -8.8146   -0.5809   -1.9128 H   0  0  0  0  0  0  0  0  0  0  0  0
   -6.9582   -1.8867   -0.9265 H   0  0  0  0  0  0  0  0  0  0  0  0
  1  2  2  0  0  0  0
  2 35  1  0  0  0  0
  3  2  1  0  0  0  0
  3 36  1  0  0  0  0
  4  3  2  0  0  0  0
  5  6  2  0  0  0  0
  5  4  1  0  0  0  0
  6  1  1  0  0  0  0
  7  4  1  0  0  0  0
  7  8  1  0  0  0  0
  8 39  1  0  0  0  0
  9 42  1  0  0  0  0
  9 41  1  0  0  0  0
  9  8  1  0  0  0  0
 10  9  1  0  0  0  0
 11 10  1  0  0  0  0
 11 12  1  0  0  0  0
 12 47  1  0  0  0  0
 12  7  1  0  0  0  0
 13 10  1  0  0  0  0
 13 15  1  0  0  0  0
 14 13  2  0  0  0  0
 15 20  1  0  0  0  0
 16 15  1  0  0  0  0
 16 49  1  0  0  0  0
 16 17  1  0  0  0  0
 17 50  1  0  0  0  0
 17 18  1  0  0  0  0
 18 21  1  0  0  0  0
 19 53  1  0  0  0  0
 19 18  1  0  0  0  0
 19 52  1  0  0  0  0
 20 19  1  0  0  0  0
 21 23  2  0  0  0  0
 21 22  2  0  0  0  0
 24 29  1  0  0  0  0
 24 21  1  0  0  0  0
 25 24  2  0  0  0  0
 26 27  1  0  0  0  0
 26 25  1  0  0  0  0
 27 28  1  0  0  0  0
 28 57  1  0  0  0  0
 28 29  2  0  0  0  0
 29 58  1  0  0  0  0
 30 59  1  0  0  0  0
 30 27  2  0  0  0  0
 31 30  1  0  0  0  0
 32 31  2  0  0  0  0
 32 33  1  0  0  0  0
 33 26  2  0  0  0  0
 34 31  1  0  0  0  0
 37  5  1  0  0  0  0
 38  6  1  0  0  0  0
 40  8  1  0  0  0  0
 43 10  1  0  0  0  0
 44 11  1  0  0  0  0
 45 11  1  0  0  0  0
 46 12  1  0  0  0  0
 48 16  1  0  0  0  0
 51 17  1  0  0  0  0
 54 20  1  0  0  0  0
 55 20  1  0  0  0  0
 56 25  1  0  0  0  0
 60 32  1  0  0  0  0
 61 33  1  0  0  0  0
M  END
