omegapdb_1z1r_30.xyz
 OpenBabel11041815263D

 66 68  0  0  1  0  0  0  0  0999 V2000
    0.9848   -1.2478    1.8863 C   0  0  2  0  0  0  0  0  0  0  0  0
    0.4028   -2.6726    1.9196 C   0  0  0  0  0  0  0  0  0  0  0  0
   -0.9177   -2.7922    1.2281 C   0  0  0  0  0  0  0  0  0  0  0  0
   -2.1190   -2.6546    1.9328 C   0  0  0  0  0  0  0  0  0  0  0  0
   -3.3429   -2.6409    1.2722 C   0  0  0  0  0  0  0  0  0  0  0  0
   -3.3906   -2.7707   -0.1175 C   0  0  0  0  0  0  0  0  0  0  0  0
   -2.2028   -2.9728   -0.8289 C   0  0  0  0  0  0  0  0  0  0  0  0
   -0.9846   -2.9759   -0.1560 C   0  0  0  0  0  0  0  0  0  0  0  0
   -4.6294   -2.7415   -0.6904 O   0  0  0  0  0  0  0  0  0  0  0  0
   -4.7430   -2.1304   -1.9775 C   0  0  0  0  0  0  0  0  0  0  0  0
   -4.9187   -0.6239   -1.8914 C   0  0  0  0  0  0  0  0  0  0  0  0
   -3.8143    0.1042   -1.1280 C   0  0  0  0  0  0  0  0  0  0  0  0
   -4.1412    0.2509    0.3486 C   0  0  0  0  0  0  0  0  0  0  0  0
   -5.2951    0.2086    0.7582 O   0  0  0  0  0  0  0  0  0  0  0  0
   -3.1177    0.5459    1.2033 N   0  0  0  0  0  0  0  0  0  0  0  0
   -1.6906    0.4154    1.0370 C   0  0  2  0  0  0  0  0  0  0  0  0
   -1.1187    0.1825    2.4437 C   0  0  0  0  0  0  0  0  0  0  0  0
   -1.7583    0.5778    3.4146 O   0  0  0  0  0  0  0  0  0  0  0  0
    0.1623   -0.2791    2.6152 N   0  0  0  0  0  0  0  0  0  0  0  0
   -1.0586    1.7216    0.5092 C   0  0  0  0  0  0  0  0  0  0  0  0
   -1.0422    1.7810   -1.0017 C   0  0  0  0  0  0  0  0  0  0  0  0
   -0.5584    0.8766   -1.6758 O   0  0  0  0  0  0  0  0  0  0  0  0
   -1.5639    2.9030   -1.5533 N   0  0  0  0  0  0  0  0  0  0  0  0
    1.3566   -0.7395    0.4945 C   0  0  2  0  0  0  0  0  0  0  0  0
    2.0645   -1.7918   -0.1705 O   0  0  0  0  0  0  0  0  0  0  0  0
    2.2648    0.4829    0.5834 C   0  0  0  0  0  0  0  0  0  0  0  0
    3.5363    0.0688    1.1640 N   0  0  0  0  0  0  0  0  0  0  0  0
    4.6536    1.2449    1.4790 S   0  0  0  0  0  0  0  0  0  0  0  0
    3.9763    2.2519    2.2683 O   0  0  0  0  0  0  0  0  0  0  0  0
    5.8376    0.5566    1.9431 O   0  0  0  0  0  0  0  0  0  0  0  0
    5.0155    1.9618   -0.1049 C   0  0  0  0  0  0  0  0  0  0  0  0
    4.2969    3.0767   -0.5324 C   0  0  0  0  0  0  0  0  0  0  0  0
    4.5491    3.5940   -1.8014 C   0  0  0  0  0  0  0  0  0  0  0  0
    5.5020    2.9979   -2.6254 C   0  0  0  0  0  0  0  0  0  0  0  0
    6.2166    1.8851   -2.1807 C   0  0  0  0  0  0  0  0  0  0  0  0
    5.9754    1.3572   -0.9158 C   0  0  0  0  0  0  0  0  0  0  0  0
    1.9207   -1.2773    2.4478 H   0  0  0  0  0  0  0  0  0  0  0  0
    0.2992   -2.9521    2.9697 H   0  0  0  0  0  0  0  0  0  0  0  0
    1.1377   -3.3389    1.4695 H   0  0  0  0  0  0  0  0  0  0  0  0
   -2.0977   -2.5365    3.0096 H   0  0  0  0  0  0  0  0  0  0  0  0
   -4.2723   -2.4972    1.8061 H   0  0  0  0  0  0  0  0  0  0  0  0
   -2.2138   -3.1317   -1.8969 H   0  0  0  0  0  0  0  0  0  0  0  0
   -0.0690   -3.1263   -0.7125 H   0  0  0  0  0  0  0  0  0  0  0  0
   -3.8857   -2.3826   -2.6018 H   0  0  0  0  0  0  0  0  0  0  0  0
   -5.6244   -2.5814   -2.4294 H   0  0  0  0  0  0  0  0  0  0  0  0
   -5.8671   -0.3937   -1.4086 H   0  0  0  0  0  0  0  0  0  0  0  0
   -4.9655   -0.2533   -2.9176 H   0  0  0  0  0  0  0  0  0  0  0  0
   -2.8365   -0.3498   -1.2838 H   0  0  0  0  0  0  0  0  0  0  0  0
   -3.7363    1.1277   -1.5029 H   0  0  0  0  0  0  0  0  0  0  0  0
   -3.3972    0.6764    2.1694 H   0  0  0  0  0  0  0  0  0  0  0  0
   -1.4481   -0.4121    0.3724 H   0  0  0  0  0  0  0  0  0  0  0  0
    0.3837   -0.2324    3.6018 H   0  0  0  0  0  0  0  0  0  0  0  0
   -1.5903    2.5584    0.9598 H   0  0  0  0  0  0  0  0  0  0  0  0
   -0.0170    1.7863    0.8210 H   0  0  0  0  0  0  0  0  0  0  0  0
   -1.5607    2.9943   -2.5544 H   0  0  0  0  0  0  0  0  0  0  0  0
   -1.9913    3.6152   -0.9923 H   0  0  0  0  0  0  0  0  0  0  0  0
    0.4734   -0.4760   -0.0838 H   0  0  0  0  0  0  0  0  0  0  0  0
    2.0105   -1.6090   -1.1155 H   0  0  0  0  0  0  0  0  0  0  0  0
    2.3822    0.9144   -0.4179 H   0  0  0  0  0  0  0  0  0  0  0  0
    1.8381    1.2345    1.2433 H   0  0  0  0  0  0  0  0  0  0  0  0
    3.9557   -0.7184    0.6787 H   0  0  0  0  0  0  0  0  0  0  0  0
    3.5813    3.5364    0.1344 H   0  0  0  0  0  0  0  0  0  0  0  0
    4.0062    4.4643   -2.1433 H   0  0  0  0  0  0  0  0  0  0  0  0
    5.6961    3.4052   -3.6079 H   0  0  0  0  0  0  0  0  0  0  0  0
    6.9661    1.4339   -2.8161 H   0  0  0  0  0  0  0  0  0  0  0  0
    6.5348    0.5105   -0.5429 H   0  0  0  0  0  0  0  0  0  0  0  0
  1  2  1  0  0  0  0
  1 37  1  1  0  0  0
  1 19  1  0  0  0  0
  2 38  1  0  0  0  0
  3  2  1  0  0  0  0
  3  4  2  0  0  0  0
  4 40  1  0  0  0  0
  5 41  1  0  0  0  0
  5  4  1  0  0  0  0
  6  5  2  0  0  0  0
  7  8  2  0  0  0  0
  7  6  1  0  0  0  0
  8  3  1  0  0  0  0
  9  6  1  0  0  0  0
 10 11  1  0  0  0  0
 10  9  1  0  0  0  0
 11 46  1  0  0  0  0
 11 12  1  0  0  0  0
 12 13  1  0  0  0  0
 13 14  2  0  0  0  0
 13 15  1  0  0  0  0
 15 50  1  0  0  0  0
 16 51  1  6  0  0  0
 16 15  1  0  0  0  0
 16 17  1  0  0  0  0
 17 19  1  0  0  0  0
 17 18  2  0  0  0  0
 19 52  1  0  0  0  0
 20 54  1  0  0  0  0
 20 53  1  0  0  0  0
 20 16  1  0  0  0  0
 21 20  1  0  0  0  0
 22 21  2  0  0  0  0
 23 21  1  0  0  0  0
 23 56  1  0  0  0  0
 24 57  1  6  0  0  0
 24 26  1  0  0  0  0
 24  1  1  0  0  0  0
 25 24  1  0  0  0  0
 26 27  1  0  0  0  0
 26 60  1  0  0  0  0
 27 28  1  0  0  0  0
 28 30  2  0  0  0  0
 28 29  2  0  0  0  0
 31 28  1  0  0  0  0
 32 31  1  0  0  0  0
 32 62  1  0  0  0  0
 33 32  2  0  0  0  0
 34 35  2  0  0  0  0
 34 33  1  0  0  0  0
 35 36  1  0  0  0  0
 36 66  1  0  0  0  0
 36 31  2  0  0  0  0
 39  2  1  0  0  0  0
 42  7  1  0  0  0  0
 43  8  1  0  0  0  0
 44 10  1  0  0  0  0
 45 10  1  0  0  0  0
 47 11  1  0  0  0  0
 48 12  1  0  0  0  0
 49 12  1  0  0  0  0
 55 23  1  0  0  0  0
 58 25  1  0  0  0  0
 59 26  1  0  0  0  0
 61 27  1  0  0  0  0
 63 33  1  0  0  0  0
 64 34  1  0  0  0  0
 65 35  1  0  0  0  0
M  END
