omegapdb_2byh_16.xyz
 OpenBabel11041815263D

 40 42  0  0  0  0  0  0  0  0999 V2000
    5.0813    2.9634    2.7547 O   0  0  0  0  0  0  0  0  0  0  0  0
    5.2704    2.1608    1.8525 C   0  0  0  0  0  0  0  0  0  0  0  0
    6.6329    2.0114    1.2187 C   0  0  0  0  0  0  0  0  0  0  0  0
    4.1627    1.3016    1.3479 C   0  0  0  0  0  0  0  0  0  0  0  0
    4.3364    0.3876    0.3030 C   0  0  0  0  0  0  0  0  0  0  0  0
    3.2720   -0.3872   -0.1327 C   0  0  0  0  0  0  0  0  0  0  0  0
    2.0097   -0.2694    0.4628 C   0  0  0  0  0  0  0  0  0  0  0  0
    1.8288    0.6411    1.5142 C   0  0  0  0  0  0  0  0  0  0  0  0
    2.9017    1.4117    1.9399 C   0  0  0  0  0  0  0  0  0  0  0  0
    0.9900   -1.0898   -0.0264 N   0  0  0  0  0  0  0  0  0  0  0  0
   -0.3494   -1.0767    0.2971 C   0  0  0  0  0  0  0  0  0  0  0  0
   -0.8594   -0.3138    1.1037 O   0  0  0  0  0  0  0  0  0  0  0  0
   -1.1149   -2.1027   -0.4373 C   0  0  0  0  0  0  0  0  0  0  0  0
   -0.7347   -3.4016   -0.8232 C   0  0  0  0  0  0  0  0  0  0  0  0
   -1.7434   -4.0598   -1.4199 N   0  0  0  0  0  0  0  0  0  0  0  0
   -2.7463   -3.1757   -1.4109 N   0  0  0  0  0  0  0  0  0  0  0  0
   -2.4437   -1.9820   -0.8349 C   0  0  0  0  0  0  0  0  0  0  0  0
   -3.4097   -0.8984   -0.7262 C   0  0  0  0  0  0  0  0  0  0  0  0
   -4.7061   -1.1480   -0.2689 C   0  0  0  0  0  0  0  0  0  0  0  0
   -5.6412   -0.1291   -0.1510 C   0  0  0  0  0  0  0  0  0  0  0  0
   -7.2298   -0.4690    0.4296 Cl  0  0  0  0  0  0  0  0  0  0  0  0
   -5.2890    1.1815   -0.4832 C   0  0  0  0  0  0  0  0  0  0  0  0
   -6.2258    2.1551   -0.3417 O   0  0  0  0  0  0  0  0  0  0  0  0
   -4.0000    1.4341   -0.9496 C   0  0  0  0  0  0  0  0  0  0  0  0
   -3.0658    0.4122   -1.0796 C   0  0  0  0  0  0  0  0  0  0  0  0
   -1.8163    0.6286   -1.5810 O   0  0  0  0  0  0  0  0  0  0  0  0
    6.9970    0.9904    1.3282 H   0  0  0  0  0  0  0  0  0  0  0  0
    7.3191    2.6982    1.7033 H   0  0  0  0  0  0  0  0  0  0  0  0
    6.5857    2.2326    0.1529 H   0  0  0  0  0  0  0  0  0  0  0  0
    5.2980    0.2741   -0.1769 H   0  0  0  0  0  0  0  0  0  0  0  0
    3.4152   -1.0920   -0.9429 H   0  0  0  0  0  0  0  0  0  0  0  0
    0.8590    0.7325    1.9729 H   0  0  0  0  0  0  0  0  0  0  0  0
    2.7779    2.1181    2.7489 H   0  0  0  0  0  0  0  0  0  0  0  0
    1.2389   -1.6879   -0.7983 H   0  0  0  0  0  0  0  0  0  0  0  0
    0.2017   -3.9093   -0.6601 H   0  0  0  0  0  0  0  0  0  0  0  0
   -3.6174   -3.4177   -1.8569 H   0  0  0  0  0  0  0  0  0  0  0  0
   -4.9820   -2.1465    0.0422 H   0  0  0  0  0  0  0  0  0  0  0  0
   -5.8247    2.9985   -0.5784 H   0  0  0  0  0  0  0  0  0  0  0  0
   -3.7281    2.4457   -1.2316 H   0  0  0  0  0  0  0  0  0  0  0  0
   -1.6508    1.5776   -1.5950 H   0  0  0  0  0  0  0  0  0  0  0  0
  2  1  2  0  0  0  0
  3 27  1  0  0  0  0
  3 28  1  0  0  0  0
  3  2  1  0  0  0  0
  4  2  1  0  0  0  0
  4  9  2  0  0  0  0
  5  4  1  0  0  0  0
  6  5  2  0  0  0  0
  6  7  1  0  0  0  0
  7  8  2  0  0  0  0
  8  9  1  0  0  0  0
  8 32  1  0  0  0  0
  9 33  1  0  0  0  0
 10 11  1  0  0  0  0
 10  7  1  0  0  0  0
 11 12  2  0  0  0  0
 13 11  1  0  0  0  0
 14 35  1  0  0  0  0
 14 13  1  0  0  0  0
 15 16  1  0  0  0  0
 15 14  2  0  0  0  0
 16 17  1  0  0  0  0
 17 18  1  0  0  0  0
 17 13  2  0  0  0  0
 18 19  2  0  0  0  0
 19 20  1  0  0  0  0
 19 37  1  0  0  0  0
 20 21  1  0  0  0  0
 22 23  1  0  0  0  0
 22 20  2  0  0  0  0
 24 22  1  0  0  0  0
 25 24  2  0  0  0  0
 25 18  1  0  0  0  0
 26 25  1  0  0  0  0
 29  3  1  0  0  0  0
 30  5  1  0  0  0  0
 31  6  1  0  0  0  0
 34 10  1  0  0  0  0
 36 16  1  0  0  0  0
 38 23  1  0  0  0  0
 39 24  1  0  0  0  0
 40 26  1  0  0  0  0
M  END
