omegapdb_1gs5_11.xyz
 OpenBabel11041815263D

 24 23  0  0  1  0  0  0  0  0999 V2000
   -0.3338   -0.9658   -0.2646 C   0  0  2  0  0  0  0  0  0  0  0  0
   -1.4500   -1.6860    0.4893 C   0  0  0  0  0  0  0  0  0  0  0  0
   -2.5876   -1.7722    0.0957 O   0  0  0  0  0  0  0  0  0  0  0  0
   -1.0028   -2.2840    1.6118 O   0  0  0  0  0  0  0  0  0  0  0  0
    0.8261   -0.5155    0.6204 C   0  0  0  0  0  0  0  0  0  0  0  0
    1.9339    0.1273   -0.2134 C   0  0  0  0  0  0  0  0  0  0  0  0
    3.0744    0.5545    0.6639 C   0  0  0  0  0  0  0  0  0  0  0  0
    3.3673    1.6922    0.9482 O   0  0  0  0  0  0  0  0  0  0  0  0
    3.7541   -0.5179    1.1450 O   0  0  0  0  0  0  0  0  0  0  0  0
   -0.8979    0.1135   -1.0467 N   0  0  0  0  0  0  0  0  0  0  0  0
   -1.6817    1.0481   -0.4182 C   0  0  0  0  0  0  0  0  0  0  0  0
   -1.7406    1.1164    0.8005 O   0  0  0  0  0  0  0  0  0  0  0  0
   -2.4539    1.9602   -1.3343 C   0  0  0  0  0  0  0  0  0  0  0  0
    0.0490   -1.7024   -0.9765 H   0  0  0  0  0  0  0  0  0  0  0  0
   -1.7758   -2.7313    1.9892 H   0  0  0  0  0  0  0  0  0  0  0  0
    0.4542    0.1894    1.3608 H   0  0  0  0  0  0  0  0  0  0  0  0
    1.2186   -1.3824    1.1467 H   0  0  0  0  0  0  0  0  0  0  0  0
    2.3077   -0.5889   -0.9471 H   0  0  0  0  0  0  0  0  0  0  0  0
    1.5637    1.0071   -0.7305 H   0  0  0  0  0  0  0  0  0  0  0  0
    4.4427   -0.1494    1.7185 H   0  0  0  0  0  0  0  0  0  0  0  0
   -1.0818   -0.0578   -2.0201 H   0  0  0  0  0  0  0  0  0  0  0  0
   -3.4590    1.5566   -1.4503 H   0  0  0  0  0  0  0  0  0  0  0  0
   -1.9953    2.0497   -2.3162 H   0  0  0  0  0  0  0  0  0  0  0  0
   -2.5311    2.9389   -0.8721 H   0  0  0  0  0  0  0  0  0  0  0  0
  1 14  1  6  0  0  0
  1  2  1  0  0  0  0
  1  5  1  0  0  0  0
  2  4  1  0  0  0  0
  3  2  2  0  0  0  0
  4 15  1  0  0  0  0
  5 17  1  0  0  0  0
  5 16  1  0  0  0  0
  6  5  1  0  0  0  0
  6  7  1  0  0  0  0
  7  8  2  0  0  0  0
  7  9  1  0  0  0  0
  9 20  1  0  0  0  0
 10 11  1  0  0  0  0
 10  1  1  0  0  0  0
 11 12  2  0  0  0  0
 13 24  1  0  0  0  0
 13 11  1  0  0  0  0
 18  6  1  0  0  0  0
 19  6  1  0  0  0  0
 21 10  1  0  0  0  0
 22 13  1  0  0  0  0
 23 13  1  0  0  0  0
M  END
