omegapdb_1m5f_19.xyz
 OpenBabel11041815263D

 25 25  0  0  1  0  0  0  0  0999 V2000
   -0.9541   -3.4261   -1.6689 O   0  0  0  0  0  0  0  0  0  0  0  0
   -0.3964   -2.2128   -1.5339 C   0  0  0  0  0  0  0  0  0  0  0  0
    0.6603   -1.9250   -2.0463 O   0  0  0  0  0  0  0  0  0  0  0  0
   -1.1825   -1.2541   -0.7244 C   0  0  0  0  0  0  0  0  0  0  0  0
   -2.3749   -1.6188   -0.2674 N   0  0  0  0  0  0  0  0  0  0  0  0
   -2.8483   -0.5410    0.4306 O   0  0  0  0  0  0  0  0  0  0  0  0
   -1.9373    0.4613    0.3853 C   0  0  0  0  0  0  0  0  0  0  0  0
   -0.8499    0.0646   -0.3461 C   0  0  0  0  0  0  0  0  0  0  0  0
    0.4071    0.8144   -0.6155 C   0  0  0  0  0  0  0  0  0  0  0  0
    1.4384    0.6849    0.5171 C   0  0  2  0  0  0  0  0  0  0  0  0
    2.6744    1.3464    0.0992 N   0  0  0  0  0  0  0  0  0  0  0  0
    1.7199   -0.7929    0.7988 C   0  0  0  0  0  0  0  0  0  0  0  0
    0.9607   -1.4853    1.4354 O   0  0  0  0  0  0  0  0  0  0  0  0
    2.8590   -1.2443    0.2681 O   0  0  0  0  0  0  0  0  0  0  0  0
   -2.2796    1.7020    1.1172 C   0  0  0  0  0  0  0  0  0  0  0  0
   -1.7850   -3.4239   -1.1661 H   0  0  0  0  0  0  0  0  0  0  0  0
    0.8567    0.4483   -1.5375 H   0  0  0  0  0  0  0  0  0  0  0  0
    0.1838    1.8767   -0.7402 H   0  0  0  0  0  0  0  0  0  0  0  0
    1.0044    1.0944    1.4320 H   0  0  0  0  0  0  0  0  0  0  0  0
    2.4790    2.1516   -0.4814 H   0  0  0  0  0  0  0  0  0  0  0  0
    3.2029    1.6730    0.8986 H   0  0  0  0  0  0  0  0  0  0  0  0
    3.2526   -0.4597   -0.1685 H   0  0  0  0  0  0  0  0  0  0  0  0
   -3.2751    2.0492    0.8476 H   0  0  0  0  0  0  0  0  0  0  0  0
   -2.2551    1.5364    2.1936 H   0  0  0  0  0  0  0  0  0  0  0  0
   -1.5610    2.4809    0.8726 H   0  0  0  0  0  0  0  0  0  0  0  0
  1  2  1  0  0  0  0
  1 16  1  0  0  0  0
  2  4  1  0  0  0  0
  3  2  2  0  0  0  0
  4  8  1  0  0  0  0
  4  5  2  0  0  0  0
  5  6  1  0  0  0  0
  7  6  1  0  0  0  0
  7 15  1  0  0  0  0
  8  7  2  0  0  0  0
  9  8  1  0  0  0  0
  9 10  1  0  0  0  0
 10 12  1  0  0  0  0
 10 19  1  1  0  0  0
 11 10  1  0  0  0  0
 11 21  1  0  0  0  0
 12 13  2  0  0  0  0
 14 12  1  0  0  0  0
 15 24  1  0  0  0  0
 17  9  1  0  0  0  0
 18  9  1  0  0  0  0
 20 11  1  0  0  0  0
 22 14  1  0  0  0  0
 23 15  1  0  0  0  0
 25 15  1  0  0  0  0
M  END
