omegapdb_1qxw_01.xyz
 OpenBabel11041815263D

 36 36  0  0  1  0  0  0  0  0999 V2000
    5.3627   -0.2823    0.8138 C   0  0  0  0  0  0  0  0  0  0  0  0
    4.7748   -0.5597   -0.5484 C   0  0  0  0  0  0  0  0  0  0  0  0
    4.2635    0.5837    0.2756 C   0  0  0  0  0  0  0  0  0  0  0  0
    2.9609    0.4183    0.8546 N   0  0  0  0  0  0  0  0  0  0  0  0
    1.8741    0.7961   -0.0450 C   0  0  0  0  0  0  0  0  0  0  0  0
    0.5811    0.2526    0.5465 C   0  0  0  0  0  0  0  0  0  0  0  0
   -0.5973    0.3254   -0.4267 C   0  0  1  0  0  0  0  0  0  0  0  0
   -0.2463   -0.4693   -1.6018 N   0  0  0  0  0  0  0  0  0  0  0  0
   -1.9080   -0.0746    0.2547 C   0  0  0  0  0  0  0  0  0  0  0  0
   -3.1194    0.0280   -0.6624 C   0  0  0  0  0  0  0  0  0  0  0  0
   -4.4272   -0.2867    0.0528 C   0  0  0  0  0  0  0  0  0  0  0  0
   -5.6333   -0.1966   -0.8725 C   0  0  0  0  0  0  0  0  0  0  0  0
    0.7534   -1.0940    0.9044 O   0  0  0  0  0  0  0  0  0  0  0  0
    0.3429    1.0450    1.7055 O   0  0  0  0  0  0  0  0  0  0  0  0
    5.0907   -0.9553    1.6116 H   0  0  0  0  0  0  0  0  0  0  0  0
    6.3579    0.1307    0.8644 H   0  0  0  0  0  0  0  0  0  0  0  0
    4.1172   -1.4110   -0.6352 H   0  0  0  0  0  0  0  0  0  0  0  0
    5.3740   -0.3365   -1.4169 H   0  0  0  0  0  0  0  0  0  0  0  0
    4.5418    1.5805   -0.0553 H   0  0  0  0  0  0  0  0  0  0  0  0
    2.8837    0.9577    1.7101 H   0  0  0  0  0  0  0  0  0  0  0  0
    2.0410    0.3253   -1.0097 H   0  0  0  0  0  0  0  0  0  0  0  0
    1.7769    1.8774   -0.1860 H   0  0  0  0  0  0  0  0  0  0  0  0
   -0.6766    1.3695   -0.7429 H   0  0  0  0  0  0  0  0  0  0  0  0
   -0.9848   -0.4168   -2.2911 H   0  0  0  0  0  0  0  0  0  0  0  0
   -0.1693   -1.4398   -1.3178 H   0  0  0  0  0  0  0  0  0  0  0  0
   -1.8129   -1.0976    0.6283 H   0  0  0  0  0  0  0  0  0  0  0  0
   -2.0759    0.5768    1.1154 H   0  0  0  0  0  0  0  0  0  0  0  0
   -3.0104   -0.6576   -1.5063 H   0  0  0  0  0  0  0  0  0  0  0  0
   -3.1732    1.0372   -1.0830 H   0  0  0  0  0  0  0  0  0  0  0  0
   -4.3652   -1.2884    0.4838 H   0  0  0  0  0  0  0  0  0  0  0  0
   -4.5516    0.4027    0.8907 H   0  0  0  0  0  0  0  0  0  0  0  0
   -5.5378   -0.8973   -1.7018 H   0  0  0  0  0  0  0  0  0  0  0  0
   -6.5604   -0.4233   -0.3486 H   0  0  0  0  0  0  0  0  0  0  0  0
   -5.7235    0.8044   -1.2942 H   0  0  0  0  0  0  0  0  0  0  0  0
    1.6937   -1.1320    1.1634 H   0  0  0  0  0  0  0  0  0  0  0  0
   -0.2170    0.5075    2.2771 H   0  0  0  0  0  0  0  0  0  0  0  0
  1 16  1  0  0  0  0
  1 15  1  0  0  0  0
  2  3  1  0  0  0  0
  2  1  1  0  0  0  0
  3  1  1  0  0  0  0
  3  4  1  0  0  0  0
  4 20  1  0  0  0  0
  5  6  1  0  0  0  0
  5  4  1  0  0  0  0
  6 13  1  0  0  0  0
  6 14  1  0  0  0  0
  7 23  1  6  0  0  0
  7  9  1  0  0  0  0
  7  6  1  0  0  0  0
  8 25  1  0  0  0  0
  8  7  1  0  0  0  0
  9 26  1  0  0  0  0
  9 27  1  0  0  0  0
 10 11  1  0  0  0  0
 10  9  1  0  0  0  0
 11 30  1  0  0  0  0
 11 31  1  0  0  0  0
 12 33  1  0  0  0  0
 12 11  1  0  0  0  0
 13 35  1  0  0  0  0
 14 36  1  0  0  0  0
 17  2  1  0  0  0  0
 18  2  1  0  0  0  0
 19  3  1  0  0  0  0
 21  5  1  0  0  0  0
 22  5  1  0  0  0  0
 24  8  1  0  0  0  0
 28 10  1  0  0  0  0
 29 10  1  0  0  0  0
 32 12  1  0  0  0  0
 34 12  1  0  0  0  0
M  END
