omegapdb_2f7p_21.xyz
 OpenBabel11041815263D

 34 35  0  0  1  0  0  0  0  0999 V2000
   -1.1008   -1.1070    0.2927 C   0  0  1  0  0  0  0  0  0  0  0  0
    0.3292   -0.9228    0.3879 N   0  0  0  0  0  0  0  0  0  0  0  0
    0.8563    0.4307    0.5374 C   0  0  0  0  0  0  0  0  0  0  0  0
    2.3241    0.4548    0.1974 C   0  0  0  0  0  0  0  0  0  0  0  0
    2.8019   -0.2172   -0.9313 C   0  0  0  0  0  0  0  0  0  0  0  0
    4.1531   -0.1659   -1.2620 C   0  0  0  0  0  0  0  0  0  0  0  0
    5.0439    0.5555   -0.4671 C   0  0  0  0  0  0  0  0  0  0  0  0
    4.5762    1.2227    0.6623 C   0  0  0  0  0  0  0  0  0  0  0  0
    3.2226    1.1690    0.9913 C   0  0  0  0  0  0  0  0  0  0  0  0
   -2.0525   -0.5612    1.3739 C   0  0  1  0  0  0  0  0  0  0  0  0
   -1.8084    0.7762    1.7949 O   0  0  0  0  0  0  0  0  0  0  0  0
   -3.4075   -0.6401    0.6669 C   0  0  1  0  0  0  0  0  0  0  0  0
   -4.4196    0.1053    1.3164 O   0  0  0  0  0  0  0  0  0  0  0  0
   -3.0942   -0.0849   -0.7328 C   0  0  1  0  0  0  0  0  0  0  0  0
   -3.0270    1.3441   -0.6635 O   0  0  0  0  0  0  0  0  0  0  0  0
   -1.6807   -0.5849   -1.0460 C   0  0  2  0  0  0  0  0  0  0  0  0
   -1.6091   -1.9469   -2.2463 S   0  0  0  0  0  0  0  0  0  0  0  0
   -1.2625   -2.1908    0.3093 H   0  0  0  0  0  0  0  0  0  0  0  0
    0.7236   -1.5268    1.0977 H   0  0  0  0  0  0  0  0  0  0  0  0
    0.3183    1.0758   -0.1619 H   0  0  0  0  0  0  0  0  0  0  0  0
    0.7028    0.8582    1.5311 H   0  0  0  0  0  0  0  0  0  0  0  0
    2.1069   -0.7896   -1.5313 H   0  0  0  0  0  0  0  0  0  0  0  0
    4.5124   -0.6890   -2.1380 H   0  0  0  0  0  0  0  0  0  0  0  0
    6.0939    0.5921   -0.7232 H   0  0  0  0  0  0  0  0  0  0  0  0
    5.2622    1.7775    1.2882 H   0  0  0  0  0  0  0  0  0  0  0  0
    2.8592    1.6831    1.8727 H   0  0  0  0  0  0  0  0  0  0  0  0
   -2.0128   -1.1660    2.2788 H   0  0  0  0  0  0  0  0  0  0  0  0
   -1.9262    1.3299    1.0055 H   0  0  0  0  0  0  0  0  0  0  0  0
   -3.7302   -1.6790    0.5830 H   0  0  0  0  0  0  0  0  0  0  0  0
   -3.9442    0.6781    1.9354 H   0  0  0  0  0  0  0  0  0  0  0  0
   -3.8256   -0.3897   -1.4811 H   0  0  0  0  0  0  0  0  0  0  0  0
   -3.8612    1.6091   -0.2489 H   0  0  0  0  0  0  0  0  0  0  0  0
   -1.0935    0.2483   -1.4264 H   0  0  0  0  0  0  0  0  0  0  0  0
   -2.0303   -1.2486   -3.3074 H   0  0  0  0  0  0  0  0  0  0  0  0
  1 18  1  6  0  0  0
  1  2  1  0  0  0  0
  1 10  1  0  0  0  0
  2  3  1  0  0  0  0
  2 19  1  0  0  0  0
  3 21  1  0  0  0  0
  4  3  1  0  0  0  0
  4  9  2  0  0  0  0
  5  4  1  0  0  0  0
  6  5  2  0  0  0  0
  6  7  1  0  0  0  0
  7  8  2  0  0  0  0
  8  9  1  0  0  0  0
  8 25  1  0  0  0  0
  9 26  1  0  0  0  0
 10 11  1  0  0  0  0
 10 27  1  1  0  0  0
 12 29  1  6  0  0  0
 12 13  1  0  0  0  0
 12 10  1  0  0  0  0
 13 30  1  0  0  0  0
 14 31  1  6  0  0  0
 14 15  1  0  0  0  0
 14 12  1  0  0  0  0
 15 32  1  0  0  0  0
 16 33  1  6  0  0  0
 16 14  1  0  0  0  0
 16  1  1  0  0  0  0
 17 16  1  0  0  0  0
 20  3  1  0  0  0  0
 22  5  1  0  0  0  0
 23  6  1  0  0  0  0
 24  7  1  0  0  0  0
 28 11  1  0  0  0  0
 34 17  1  0  0  0  0
M  END
