omegapdb_2f7p_09.xyz
 OpenBabel11041815263D

 34 35  0  0  1  0  0  0  0  0999 V2000
   -1.2154   -0.2293   -0.4276 C   0  0  1  0  0  0  0  0  0  0  0  0
    0.1405    0.2498   -0.2765 N   0  0  0  0  0  0  0  0  0  0  0  0
    1.1406   -0.7374   -0.6966 C   0  0  0  0  0  0  0  0  0  0  0  0
    2.5166   -0.2048   -0.4252 C   0  0  0  0  0  0  0  0  0  0  0  0
    3.2849   -0.7137    0.6226 C   0  0  0  0  0  0  0  0  0  0  0  0
    4.5476   -0.1902    0.8969 C   0  0  0  0  0  0  0  0  0  0  0  0
    5.0507    0.8525    0.1228 C   0  0  0  0  0  0  0  0  0  0  0  0
    4.2872    1.3710   -0.9234 C   0  0  0  0  0  0  0  0  0  0  0  0
    3.0267    0.8464   -1.1920 C   0  0  0  0  0  0  0  0  0  0  0  0
   -1.6733   -1.3167    0.5715 C   0  0  1  0  0  0  0  0  0  0  0  0
   -1.1110   -1.0188    1.8331 O   0  0  0  0  0  0  0  0  0  0  0  0
   -3.2261   -1.1823    0.6104 C   0  0  1  0  0  0  0  0  0  0  0  0
   -3.6529   -1.0712    1.9571 O   0  0  0  0  0  0  0  0  0  0  0  0
   -3.5419    0.1110   -0.1804 C   0  0  1  0  0  0  0  0  0  0  0  0
   -4.6353    0.7660    0.4460 O   0  0  0  0  0  0  0  0  0  0  0  0
   -2.2326    0.8751   -0.1723 C   0  0  2  0  0  0  0  0  0  0  0  0
   -2.2178    2.2086   -1.3956 S   0  0  0  0  0  0  0  0  0  0  0  0
   -1.3420   -0.5906   -1.4534 H   0  0  0  0  0  0  0  0  0  0  0  0
    0.2830    0.4282    0.7155 H   0  0  0  0  0  0  0  0  0  0  0  0
    1.0204   -1.7027   -0.1892 H   0  0  0  0  0  0  0  0  0  0  0  0
    1.0037   -0.9066   -1.7671 H   0  0  0  0  0  0  0  0  0  0  0  0
    2.8894   -1.5227    1.2244 H   0  0  0  0  0  0  0  0  0  0  0  0
    5.1346   -0.5941    1.7104 H   0  0  0  0  0  0  0  0  0  0  0  0
    6.0307    1.2590    0.3316 H   0  0  0  0  0  0  0  0  0  0  0  0
    4.6753    2.1803   -1.5270 H   0  0  0  0  0  0  0  0  0  0  0  0
    2.4271    1.2500   -1.9981 H   0  0  0  0  0  0  0  0  0  0  0  0
   -1.3691   -2.3180    0.2625 H   0  0  0  0  0  0  0  0  0  0  0  0
   -1.8732   -0.9837    2.4353 H   0  0  0  0  0  0  0  0  0  0  0  0
   -3.7079   -2.0447    0.1505 H   0  0  0  0  0  0  0  0  0  0  0  0
   -4.2731   -0.3253    1.9659 H   0  0  0  0  0  0  0  0  0  0  0  0
   -3.7964   -0.1480   -1.2125 H   0  0  0  0  0  0  0  0  0  0  0  0
   -4.6226    1.6909    0.1761 H   0  0  0  0  0  0  0  0  0  0  0  0
   -2.0664    1.2813    0.8281 H   0  0  0  0  0  0  0  0  0  0  0  0
   -0.9024    2.4305   -1.2682 H   0  0  0  0  0  0  0  0  0  0  0  0
  1 18  1  6  0  0  0
  1  2  1  0  0  0  0
  1 16  1  0  0  0  0
  1 10  1  0  0  0  0
  2 19  1  0  0  0  0
  3  4  1  0  0  0  0
  3  2  1  0  0  0  0
  3 20  1  0  0  0  0
  4  5  2  0  0  0  0
  5  6  1  0  0  0  0
  5 22  1  0  0  0  0
  6 23  1  0  0  0  0
  7 24  1  0  0  0  0
  7  6  2  0  0  0  0
  8  7  1  0  0  0  0
  9  8  2  0  0  0  0
  9  4  1  0  0  0  0
 10 27  1  6  0  0  0
 10 12  1  0  0  0  0
 10 11  1  0  0  0  0
 11 28  1  0  0  0  0
 12 29  1  6  0  0  0
 12 13  1  0  0  0  0
 13 30  1  0  0  0  0
 14 31  1  6  0  0  0
 14 16  1  0  0  0  0
 14 15  1  0  0  0  0
 14 12  1  0  0  0  0
 16 33  1  1  0  0  0
 17 34  1  0  0  0  0
 17 16  1  0  0  0  0
 21  3  1  0  0  0  0
 25  8  1  0  0  0  0
 26  9  1  0  0  0  0
 32 15  1  0  0  0  0
M  END
