omegapdb_1qxw_07.xyz
 OpenBabel11041815263D

 36 36  0  0  1  0  0  0  0  0999 V2000
    3.9793    0.4090    0.6951 C   0  0  0  0  0  0  0  0  0  0  0  0
    4.1542    1.8361    0.2420 C   0  0  0  0  0  0  0  0  0  0  0  0
    3.2724    0.8963   -0.5295 C   0  0  0  0  0  0  0  0  0  0  0  0
    1.8528    1.1254   -0.4508 N   0  0  0  0  0  0  0  0  0  0  0  0
    1.0234    0.0018   -0.8918 C   0  0  0  0  0  0  0  0  0  0  0  0
    0.7129   -0.9181    0.2986 C   0  0  0  0  0  0  0  0  0  0  0  0
   -0.5482   -1.7896    0.1060 C   0  0  1  0  0  0  0  0  0  0  0  0
   -0.3954   -2.9436    1.0087 N   0  0  0  0  0  0  0  0  0  0  0  0
   -1.8805   -1.0824    0.3537 C   0  0  0  0  0  0  0  0  0  0  0  0
   -2.2263    0.1421   -0.4842 C   0  0  0  0  0  0  0  0  0  0  0  0
   -3.6675    0.5869   -0.2647 C   0  0  0  0  0  0  0  0  0  0  0  0
   -4.0165    1.8373   -1.0605 C   0  0  0  0  0  0  0  0  0  0  0  0
    0.5018   -0.1356    1.4503 O   0  0  0  0  0  0  0  0  0  0  0  0
    1.8264   -1.7653    0.4334 O   0  0  0  0  0  0  0  0  0  0  0  0
    4.7981   -0.2786    0.5543 H   0  0  0  0  0  0  0  0  0  0  0  0
    3.3648    0.2224    1.5603 H   0  0  0  0  0  0  0  0  0  0  0  0
    3.6517    2.5994    0.8161 H   0  0  0  0  0  0  0  0  0  0  0  0
    5.0943    2.1272   -0.1998 H   0  0  0  0  0  0  0  0  0  0  0  0
    3.6500    0.5351   -1.4819 H   0  0  0  0  0  0  0  0  0  0  0  0
    1.6178    1.9514   -0.9859 H   0  0  0  0  0  0  0  0  0  0  0  0
    1.5106   -0.6000   -1.6632 H   0  0  0  0  0  0  0  0  0  0  0  0
    0.1006    0.4059   -1.2950 H   0  0  0  0  0  0  0  0  0  0  0  0
   -0.5090   -2.1785   -0.9153 H   0  0  0  0  0  0  0  0  0  0  0  0
   -0.6871   -2.6687    1.9408 H   0  0  0  0  0  0  0  0  0  0  0  0
   -1.0057   -3.6978    0.7223 H   0  0  0  0  0  0  0  0  0  0  0  0
   -1.9072   -0.7994    1.4079 H   0  0  0  0  0  0  0  0  0  0  0  0
   -2.6649   -1.8313    0.2048 H   0  0  0  0  0  0  0  0  0  0  0  0
   -2.0781   -0.0695   -1.5478 H   0  0  0  0  0  0  0  0  0  0  0  0
   -1.5623    0.9669   -0.2211 H   0  0  0  0  0  0  0  0  0  0  0  0
   -4.3411   -0.2277   -0.5403 H   0  0  0  0  0  0  0  0  0  0  0  0
   -3.8235    0.7706    0.8007 H   0  0  0  0  0  0  0  0  0  0  0  0
   -3.8836    1.6660   -2.1288 H   0  0  0  0  0  0  0  0  0  0  0  0
   -5.0486    2.1435   -0.8974 H   0  0  0  0  0  0  0  0  0  0  0  0
   -3.3721    2.6687   -0.7756 H   0  0  0  0  0  0  0  0  0  0  0  0
    1.0520    0.6537    1.2845 H   0  0  0  0  0  0  0  0  0  0  0  0
    1.4547   -2.5598    0.8612 H   0  0  0  0  0  0  0  0  0  0  0  0
  1 16  1  0  0  0  0
  2  1  1  0  0  0  0
  2 17  1  0  0  0  0
  3  4  1  0  0  0  0
  3  2  1  0  0  0  0
  3  1  1  0  0  0  0
  5  4  1  0  0  0  0
  5  6  1  0  0  0  0
  6 14  1  0  0  0  0
  6 13  1  0  0  0  0
  7 23  1  6  0  0  0
  7  6  1  0  0  0  0
  7  9  1  0  0  0  0
  7  8  1  0  0  0  0
  8 24  1  0  0  0  0
  9 26  1  0  0  0  0
 10 11  1  0  0  0  0
 10 29  1  0  0  0  0
 10  9  1  0  0  0  0
 11 31  1  0  0  0  0
 12 33  1  0  0  0  0
 12 34  1  0  0  0  0
 12 11  1  0  0  0  0
 14 36  1  0  0  0  0
 15  1  1  0  0  0  0
 18  2  1  0  0  0  0
 19  3  1  0  0  0  0
 20  4  1  0  0  0  0
 21  5  1  0  0  0  0
 22  5  1  0  0  0  0
 25  8  1  0  0  0  0
 27  9  1  0  0  0  0
 28 10  1  0  0  0  0
 30 11  1  0  0  0  0
 32 12  1  0  0  0  0
 35 13  1  0  0  0  0
M  END
