omegapdb_1m5f_01.xyz
 OpenBabel11041815263D

 25 25  0  0  1  0  0  0  0  0999 V2000
    0.0638   -2.6014   -1.0415 O   0  0  0  0  0  0  0  0  0  0  0  0
   -1.2430   -2.3104   -1.3121 C   0  0  0  0  0  0  0  0  0  0  0  0
   -1.9522   -3.0416   -1.9544 O   0  0  0  0  0  0  0  0  0  0  0  0
   -1.6407   -1.0151   -0.7208 C   0  0  0  0  0  0  0  0  0  0  0  0
   -2.8371   -0.5393   -1.0806 N   0  0  0  0  0  0  0  0  0  0  0  0
   -2.9751    0.6323   -0.3864 O   0  0  0  0  0  0  0  0  0  0  0  0
   -1.8858    0.8522    0.3816 C   0  0  0  0  0  0  0  0  0  0  0  0
   -0.9860   -0.1702    0.2110 C   0  0  0  0  0  0  0  0  0  0  0  0
    0.3509   -0.2656    0.8650 C   0  0  0  0  0  0  0  0  0  0  0  0
    1.4089    0.5442    0.1088 C   0  0  2  0  0  0  0  0  0  0  0  0
    1.6900    0.0680   -1.2466 N   0  0  0  0  0  0  0  0  0  0  0  0
    2.7036    0.5796    0.9316 C   0  0  0  0  0  0  0  0  0  0  0  0
    2.7129    0.8056    2.1186 O   0  0  0  0  0  0  0  0  0  0  0  0
    3.8045    0.3597    0.2082 O   0  0  0  0  0  0  0  0  0  0  0  0
   -1.8814    2.0797    1.2112 C   0  0  0  0  0  0  0  0  0  0  0  0
    0.2130   -3.4731   -1.4414 H   0  0  0  0  0  0  0  0  0  0  0  0
    0.3040    0.1159    1.8837 H   0  0  0  0  0  0  0  0  0  0  0  0
    0.6729   -1.3036    0.9251 H   0  0  0  0  0  0  0  0  0  0  0  0
    1.0755    1.5825    0.0495 H   0  0  0  0  0  0  0  0  0  0  0  0
    1.1923    0.6093   -1.9392 H   0  0  0  0  0  0  0  0  0  0  0  0
    1.3946   -0.8957   -1.3512 H   0  0  0  0  0  0  0  0  0  0  0  0
    3.4496    0.2041   -0.6982 H   0  0  0  0  0  0  0  0  0  0  0  0
   -1.8618    2.9729    0.5882 H   0  0  0  0  0  0  0  0  0  0  0  0
   -1.0030    2.0862    1.8522 H   0  0  0  0  0  0  0  0  0  0  0  0
   -2.7704    2.1240    1.8377 H   0  0  0  0  0  0  0  0  0  0  0  0
  2  1  1  0  0  0  0
  2  4  1  0  0  0  0
  3  2  2  0  0  0  0
  4  8  1  0  0  0  0
  5  4  2  0  0  0  0
  5  6  1  0  0  0  0
  6  7  1  0  0  0  0
  7 15  1  0  0  0  0
  8  7  2  0  0  0  0
  8  9  1  0  0  0  0
  9 18  1  0  0  0  0
  9 17  1  0  0  0  0
 10 19  1  6  0  0  0
 10  9  1  0  0  0  0
 10 12  1  0  0  0  0
 11 10  1  0  0  0  0
 12 13  2  0  0  0  0
 14 12  1  0  0  0  0
 15 25  1  0  0  0  0
 15 24  1  0  0  0  0
 16  1  1  0  0  0  0
 20 11  1  0  0  0  0
 21 11  1  0  0  0  0
 22 14  1  0  0  0  0
 23 15  1  0  0  0  0
M  END
