omegapdb_2byh_06.xyz
 OpenBabel11041815263D

 40 42  0  0  0  0  0  0  0  0999 V2000
    5.7190    3.2079    1.6688 O   0  0  0  0  0  0  0  0  0  0  0  0
    5.5147    2.0643    2.0483 C   0  0  0  0  0  0  0  0  0  0  0  0
    6.4338    1.4001    3.0453 C   0  0  0  0  0  0  0  0  0  0  0  0
    4.3496    1.2862    1.5397 C   0  0  0  0  0  0  0  0  0  0  0  0
    3.4912    1.8864    0.6151 C   0  0  0  0  0  0  0  0  0  0  0  0
    2.3882    1.2158    0.1048 C   0  0  0  0  0  0  0  0  0  0  0  0
    2.1274   -0.0964    0.5241 C   0  0  0  0  0  0  0  0  0  0  0  0
    2.9846   -0.7047    1.4496 C   0  0  0  0  0  0  0  0  0  0  0  0
    4.0820   -0.0232    1.9534 C   0  0  0  0  0  0  0  0  0  0  0  0
    1.0488   -0.8583    0.0614 N   0  0  0  0  0  0  0  0  0  0  0  0
    0.0398   -0.4908   -0.7990 C   0  0  0  0  0  0  0  0  0  0  0  0
   -0.0694    0.6351   -1.2705 O   0  0  0  0  0  0  0  0  0  0  0  0
   -0.8552   -1.6279   -1.1036 C   0  0  0  0  0  0  0  0  0  0  0  0
   -0.4204   -2.9537   -1.2919 C   0  0  0  0  0  0  0  0  0  0  0  0
   -1.4415   -3.7883   -1.5390 N   0  0  0  0  0  0  0  0  0  0  0  0
   -2.5116   -2.9970   -1.4985 N   0  0  0  0  0  0  0  0  0  0  0  0
   -2.2518   -1.6828   -1.2491 C   0  0  0  0  0  0  0  0  0  0  0  0
   -3.3204   -0.6906   -1.1628 C   0  0  0  0  0  0  0  0  0  0  0  0
   -3.0522    0.6628   -1.4018 C   0  0  0  0  0  0  0  0  0  0  0  0
   -4.0533    1.6137   -1.3028 C   0  0  0  0  0  0  0  0  0  0  0  0
   -3.7120    3.2898   -1.5965 Cl  0  0  0  0  0  0  0  0  0  0  0  0
   -5.3640    1.2597   -0.9770 C   0  0  0  0  0  0  0  0  0  0  0  0
   -6.3722    2.1569   -0.8744 O   0  0  0  0  0  0  0  0  0  0  0  0
   -5.6437   -0.0840   -0.7558 C   0  0  0  0  0  0  0  0  0  0  0  0
   -4.6453   -1.0437   -0.8477 C   0  0  0  0  0  0  0  0  0  0  0  0
   -4.9339   -2.3719   -0.6300 O   0  0  0  0  0  0  0  0  0  0  0  0
    5.8839    1.1120    3.9407 H   0  0  0  0  0  0  0  0  0  0  0  0
    6.8705    0.4965    2.6212 H   0  0  0  0  0  0  0  0  0  0  0  0
    7.2221    2.0972    3.3096 H   0  0  0  0  0  0  0  0  0  0  0  0
    3.7053    2.8984    0.3014 H   0  0  0  0  0  0  0  0  0  0  0  0
    1.7286    1.6888   -0.6022 H   0  0  0  0  0  0  0  0  0  0  0  0
    2.7853   -1.7190    1.7740 H   0  0  0  0  0  0  0  0  0  0  0  0
    4.7246   -0.5188    2.6670 H   0  0  0  0  0  0  0  0  0  0  0  0
    0.9602   -1.7806    0.4576 H   0  0  0  0  0  0  0  0  0  0  0  0
    0.5894   -3.3295   -1.3019 H   0  0  0  0  0  0  0  0  0  0  0  0
   -3.4349   -3.3930   -1.5802 H   0  0  0  0  0  0  0  0  0  0  0  0
   -2.0466    0.9601   -1.6605 H   0  0  0  0  0  0  0  0  0  0  0  0
   -5.9956    3.0286   -1.0656 H   0  0  0  0  0  0  0  0  0  0  0  0
   -6.6603   -0.3652   -0.5108 H   0  0  0  0  0  0  0  0  0  0  0  0
   -5.8657   -2.4409   -0.3944 H   0  0  0  0  0  0  0  0  0  0  0  0
  1  2  2  0  0  0  0
  2  3  1  0  0  0  0
  3 29  1  0  0  0  0
  3 27  1  0  0  0  0
  4  9  1  0  0  0  0
  4  2  1  0  0  0  0
  5  4  2  0  0  0  0
  6  7  2  0  0  0  0
  6  5  1  0  0  0  0
  7  8  1  0  0  0  0
  8 32  1  0  0  0  0
  8  9  2  0  0  0  0
  9 33  1  0  0  0  0
 10 34  1  0  0  0  0
 10  7  1  0  0  0  0
 11 10  1  0  0  0  0
 12 11  2  0  0  0  0
 13 11  1  0  0  0  0
 14 13  1  0  0  0  0
 15 16  1  0  0  0  0
 15 14  2  0  0  0  0
 16 17  1  0  0  0  0
 17 18  1  0  0  0  0
 17 13  2  0  0  0  0
 18 25  2  0  0  0  0
 19 20  2  0  0  0  0
 19 18  1  0  0  0  0
 20 22  1  0  0  0  0
 21 20  1  0  0  0  0
 22 23  1  0  0  0  0
 22 24  2  0  0  0  0
 24 39  1  0  0  0  0
 25 24  1  0  0  0  0
 25 26  1  0  0  0  0
 26 40  1  0  0  0  0
 28  3  1  0  0  0  0
 30  5  1  0  0  0  0
 31  6  1  0  0  0  0
 35 14  1  0  0  0  0
 36 16  1  0  0  0  0
 37 19  1  0  0  0  0
 38 23  1  0  0  0  0
M  END
