omegapdb_2f7p_15.xyz
 OpenBabel11041815263D

 34 35  0  0  1  0  0  0  0  0999 V2000
   -1.1299   -0.7877   -0.1216 C   0  0  1  0  0  0  0  0  0  0  0  0
    0.2482   -0.5048    0.1830 N   0  0  0  0  0  0  0  0  0  0  0  0
    1.0256    0.0209   -0.9289 C   0  0  0  0  0  0  0  0  0  0  0  0
    2.4571    0.2420   -0.5200 C   0  0  0  0  0  0  0  0  0  0  0  0
    3.1249   -0.7056    0.2609 C   0  0  0  0  0  0  0  0  0  0  0  0
    4.4564   -0.5121    0.6189 C   0  0  0  0  0  0  0  0  0  0  0  0
    5.1374    0.6303    0.2001 C   0  0  0  0  0  0  0  0  0  0  0  0
    4.4780    1.5810   -0.5756 C   0  0  0  0  0  0  0  0  0  0  0  0
    3.1441    1.3861   -0.9291 C   0  0  0  0  0  0  0  0  0  0  0  0
   -1.8962   -1.2118    1.1368 C   0  0  1  0  0  0  0  0  0  0  0  0
   -1.5790   -0.4172    2.2728 O   0  0  0  0  0  0  0  0  0  0  0  0
   -3.3503   -1.0221    0.7058 C   0  0  1  0  0  0  0  0  0  0  0  0
   -4.3110   -1.1884    1.7119 O   0  0  0  0  0  0  0  0  0  0  0  0
   -3.3322    0.3593    0.0419 C   0  0  1  0  0  0  0  0  0  0  0  0
   -3.3152    1.3167    1.1125 O   0  0  0  0  0  0  0  0  0  0  0  0
   -1.9996    0.3656   -0.7346 C   0  0  2  0  0  0  0  0  0  0  0  0
   -2.1959    0.2679   -2.5405 S   0  0  0  0  0  0  0  0  0  0  0  0
   -1.1518   -1.6231   -0.8287 H   0  0  0  0  0  0  0  0  0  0  0  0
    0.3013    0.1050    0.9921 H   0  0  0  0  0  0  0  0  0  0  0  0
    0.9745   -0.7136   -1.7384 H   0  0  0  0  0  0  0  0  0  0  0  0
    0.6297    0.9580   -1.3435 H   0  0  0  0  0  0  0  0  0  0  0  0
    2.5852   -1.5826    0.5910 H   0  0  0  0  0  0  0  0  0  0  0  0
    4.9628   -1.2516    1.2245 H   0  0  0  0  0  0  0  0  0  0  0  0
    6.1712    0.7800    0.4798 H   0  0  0  0  0  0  0  0  0  0  0  0
    4.9971    2.4731   -0.8986 H   0  0  0  0  0  0  0  0  0  0  0  0
    2.6299    2.1284   -1.5274 H   0  0  0  0  0  0  0  0  0  0  0  0
   -1.6723   -2.2385    1.4157 H   0  0  0  0  0  0  0  0  0  0  0  0
   -1.9596    0.4603    2.1138 H   0  0  0  0  0  0  0  0  0  0  0  0
   -3.5738   -1.7585   -0.0694 H   0  0  0  0  0  0  0  0  0  0  0  0
   -4.0231   -0.6413    2.4521 H   0  0  0  0  0  0  0  0  0  0  0  0
   -4.1950    0.5339   -0.5992 H   0  0  0  0  0  0  0  0  0  0  0  0
   -3.4255    2.1931    0.7302 H   0  0  0  0  0  0  0  0  0  0  0  0
   -1.5053    1.3261   -0.5749 H   0  0  0  0  0  0  0  0  0  0  0  0
   -2.7078   -0.9689   -2.5579 H   0  0  0  0  0  0  0  0  0  0  0  0
  1 18  1  6  0  0  0
  1  2  1  0  0  0  0
  1 10  1  0  0  0  0
  2 19  1  0  0  0  0
  3  4  1  0  0  0  0
  3  2  1  0  0  0  0
  4  5  2  0  0  0  0
  5 22  1  0  0  0  0
  5  6  1  0  0  0  0
  6 23  1  0  0  0  0
  7 24  1  0  0  0  0
  7  6  2  0  0  0  0
  8  7  1  0  0  0  0
  9  8  2  0  0  0  0
  9  4  1  0  0  0  0
 10 27  1  1  0  0  0
 10 11  1  0  0  0  0
 12 29  1  6  0  0  0
 12 10  1  0  0  0  0
 12 13  1  0  0  0  0
 13 30  1  0  0  0  0
 14 31  1  6  0  0  0
 14 12  1  0  0  0  0
 14 15  1  0  0  0  0
 16 33  1  1  0  0  0
 16  1  1  0  0  0  0
 16 14  1  0  0  0  0
 17 16  1  0  0  0  0
 20  3  1  0  0  0  0
 21  3  1  0  0  0  0
 25  8  1  0  0  0  0
 26  9  1  0  0  0  0
 28 11  1  0  0  0  0
 32 15  1  0  0  0  0
 34 17  1  0  0  0  0
M  END
