omegapdb_1gs5_06.xyz
 OpenBabel11041815263D

 24 23  0  0  1  0  0  0  0  0999 V2000
   -0.4540   -1.1809   -0.4426 C   0  0  2  0  0  0  0  0  0  0  0  0
   -1.1451   -2.0437    0.5955 C   0  0  0  0  0  0  0  0  0  0  0  0
   -2.1344   -1.7193    1.2144 O   0  0  0  0  0  0  0  0  0  0  0  0
   -0.5332   -3.2303    0.7357 O   0  0  0  0  0  0  0  0  0  0  0  0
    1.0334   -0.9824   -0.1160 C   0  0  0  0  0  0  0  0  0  0  0  0
    1.2726   -0.0578    1.0806 C   0  0  0  0  0  0  0  0  0  0  0  0
    2.5785    0.6999    0.9508 C   0  0  0  0  0  0  0  0  0  0  0  0
    3.4932    0.5997    1.7317 O   0  0  0  0  0  0  0  0  0  0  0  0
    2.6608    1.5164   -0.1190 O   0  0  0  0  0  0  0  0  0  0  0  0
   -1.2251    0.0427   -0.5148 N   0  0  0  0  0  0  0  0  0  0  0  0
   -0.8204    1.2032   -1.0763 C   0  0  0  0  0  0  0  0  0  0  0  0
    0.2819    1.3503   -1.6099 O   0  0  0  0  0  0  0  0  0  0  0  0
   -1.8123    2.3350   -1.0037 C   0  0  0  0  0  0  0  0  0  0  0  0
   -0.5128   -1.7241   -1.3903 H   0  0  0  0  0  0  0  0  0  0  0  0
   -1.0403   -3.7194    1.4020 H   0  0  0  0  0  0  0  0  0  0  0  0
    1.4635   -1.9639    0.0715 H   0  0  0  0  0  0  0  0  0  0  0  0
    1.5071   -0.5828   -1.0055 H   0  0  0  0  0  0  0  0  0  0  0  0
    1.3007   -0.6108    2.0155 H   0  0  0  0  0  0  0  0  0  0  0  0
    0.4672    0.6755    1.1489 H   0  0  0  0  0  0  0  0  0  0  0  0
    1.8383    1.4785   -0.6453 H   0  0  0  0  0  0  0  0  0  0  0  0
   -2.1051    0.0167   -0.0216 H   0  0  0  0  0  0  0  0  0  0  0  0
   -2.7461    2.0607   -0.5205 H   0  0  0  0  0  0  0  0  0  0  0  0
   -1.3530    3.1609   -0.4652 H   0  0  0  0  0  0  0  0  0  0  0  0
   -2.0153    2.6759   -2.0160 H   0  0  0  0  0  0  0  0  0  0  0  0
  1 14  1  6  0  0  0
  1  5  1  0  0  0  0
  1  2  1  0  0  0  0
  2  4  1  0  0  0  0
  2  3  2  0  0  0  0
  4 15  1  0  0  0  0
  5 16  1  0  0  0  0
  5  6  1  0  0  0  0
  6 19  1  0  0  0  0
  6 18  1  0  0  0  0
  7  6  1  0  0  0  0
  7  8  2  0  0  0  0
  9  7  1  0  0  0  0
 10  1  1  0  0  0  0
 10 21  1  0  0  0  0
 11 13  1  0  0  0  0
 11 10  1  0  0  0  0
 12 11  2  0  0  0  0
 13 22  1  0  0  0  0
 13 23  1  0  0  0  0
 17  5  1  0  0  0  0
 20  9  1  0  0  0  0
 24 13  1  0  0  0  0
M  END
