omegapdb_1qxw_13.xyz
 OpenBabel11041815263D

 36 36  0  0  1  0  0  0  0  0999 V2000
    5.1230    0.6218   -0.3220 C   0  0  0  0  0  0  0  0  0  0  0  0
    4.0725    1.5090   -0.9564 C   0  0  0  0  0  0  0  0  0  0  0  0
    3.7982    0.7950    0.3438 C   0  0  0  0  0  0  0  0  0  0  0  0
    2.8964   -0.3221    0.4056 N   0  0  0  0  0  0  0  0  0  0  0  0
    1.4926    0.0729    0.2963 C   0  0  0  0  0  0  0  0  0  0  0  0
    0.6516   -1.1464    0.6431 C   0  0  0  0  0  0  0  0  0  0  0  0
   -0.8278   -0.8478    0.8817 C   0  0  1  0  0  0  0  0  0  0  0  0
   -0.9339    0.0290    2.0451 N   0  0  0  0  0  0  0  0  0  0  0  0
   -1.4913   -0.2023   -0.3253 C   0  0  0  0  0  0  0  0  0  0  0  0
   -3.0037   -0.0851   -0.1840 C   0  0  0  0  0  0  0  0  0  0  0  0
   -3.6666    0.4738   -1.4367 C   0  0  0  0  0  0  0  0  0  0  0  0
   -5.1769    0.6013   -1.2906 C   0  0  0  0  0  0  0  0  0  0  0  0
    1.1391   -1.7363    1.8211 O   0  0  0  0  0  0  0  0  0  0  0  0
    0.8131   -2.0402   -0.4530 O   0  0  0  0  0  0  0  0  0  0  0  0
    5.3136   -0.3309   -0.7942 H   0  0  0  0  0  0  0  0  0  0  0  0
    5.9870    1.0879    0.1245 H   0  0  0  0  0  0  0  0  0  0  0  0
    3.5759    1.1243   -1.8351 H   0  0  0  0  0  0  0  0  0  0  0  0
    4.2295    2.5765   -0.9423 H   0  0  0  0  0  0  0  0  0  0  0  0
    3.7734    1.4059    1.2359 H   0  0  0  0  0  0  0  0  0  0  0  0
    3.1043   -0.9734   -0.3448 H   0  0  0  0  0  0  0  0  0  0  0  0
    1.2275    0.4400   -0.6984 H   0  0  0  0  0  0  0  0  0  0  0  0
    1.2875    0.8528    1.0271 H   0  0  0  0  0  0  0  0  0  0  0  0
   -1.2931   -1.8333    1.0436 H   0  0  0  0  0  0  0  0  0  0  0  0
   -0.4842   -0.4287    2.8295 H   0  0  0  0  0  0  0  0  0  0  0  0
   -1.9070    0.1499    2.2950 H   0  0  0  0  0  0  0  0  0  0  0  0
   -1.2549   -0.7954   -1.2099 H   0  0  0  0  0  0  0  0  0  0  0  0
   -1.0686    0.7944   -0.4688 H   0  0  0  0  0  0  0  0  0  0  0  0
   -3.2548    0.5636    0.6595 H   0  0  0  0  0  0  0  0  0  0  0  0
   -3.4263   -1.0698    0.0387 H   0  0  0  0  0  0  0  0  0  0  0  0
   -3.2329    1.4503   -1.6633 H   0  0  0  0  0  0  0  0  0  0  0  0
   -3.4292   -0.1734   -2.2838 H   0  0  0  0  0  0  0  0  0  0  0  0
   -5.6292   -0.3687   -1.0850 H   0  0  0  0  0  0  0  0  0  0  0  0
   -5.6364    0.9994   -2.1939 H   0  0  0  0  0  0  0  0  0  0  0  0
   -5.4312    1.2663   -0.4654 H   0  0  0  0  0  0  0  0  0  0  0  0
    2.0966   -1.5513    1.7848 H   0  0  0  0  0  0  0  0  0  0  0  0
    0.5661   -2.9093   -0.1149 H   0  0  0  0  0  0  0  0  0  0  0  0
  1 16  1  0  0  0  0
  1  3  1  0  0  0  0
  2 18  1  0  0  0  0
  2  1  1  0  0  0  0
  2  3  1  0  0  0  0
  3  4  1  0  0  0  0
  3 19  1  0  0  0  0
  5  4  1  0  0  0  0
  5  6  1  0  0  0  0
  5 22  1  0  0  0  0
  6  7  1  0  0  0  0
  6 13  1  0  0  0  0
  7 23  1  1  0  0  0
  7  8  1  0  0  0  0
  8 25  1  0  0  0  0
  8 24  1  0  0  0  0
  9 10  1  0  0  0  0
  9  7  1  0  0  0  0
 10 29  1  0  0  0  0
 10 28  1  0  0  0  0
 11 12  1  0  0  0  0
 11 10  1  0  0  0  0
 12 32  1  0  0  0  0
 12 34  1  0  0  0  0
 14 36  1  0  0  0  0
 14  6  1  0  0  0  0
 15  1  1  0  0  0  0
 17  2  1  0  0  0  0
 20  4  1  0  0  0  0
 21  5  1  0  0  0  0
 26  9  1  0  0  0  0
 27  9  1  0  0  0  0
 30 11  1  0  0  0  0
 31 11  1  0  0  0  0
 33 12  1  0  0  0  0
 35 13  1  0  0  0  0
M  END
