omegapdb_1gs5_19.xyz
 OpenBabel11041815263D

 24 23  0  0  1  0  0  0  0  0999 V2000
   -0.5555   -0.9889    0.0527 C   0  0  2  0  0  0  0  0  0  0  0  0
   -1.4759   -1.9867    0.7384 C   0  0  0  0  0  0  0  0  0  0  0  0
   -2.5344   -1.6844    1.2308 O   0  0  0  0  0  0  0  0  0  0  0  0
   -1.0229   -3.2554    0.8025 O   0  0  0  0  0  0  0  0  0  0  0  0
    0.7147   -0.7944    0.8895 C   0  0  0  0  0  0  0  0  0  0  0  0
    1.6540    0.2158    0.2578 C   0  0  0  0  0  0  0  0  0  0  0  0
    2.9462    0.3379    1.0302 C   0  0  0  0  0  0  0  0  0  0  0  0
    3.2330   -0.3171    1.9991 O   0  0  0  0  0  0  0  0  0  0  0  0
    3.8147    1.2641    0.5477 O   0  0  0  0  0  0  0  0  0  0  0  0
   -1.2972    0.2356   -0.1243 N   0  0  0  0  0  0  0  0  0  0  0  0
   -1.1830    0.9600   -1.2755 C   0  0  0  0  0  0  0  0  0  0  0  0
   -0.3082    0.7349   -2.1044 O   0  0  0  0  0  0  0  0  0  0  0  0
   -2.2028    2.0567   -1.4469 C   0  0  0  0  0  0  0  0  0  0  0  0
   -0.2795   -1.3598   -0.9389 H   0  0  0  0  0  0  0  0  0  0  0  0
   -0.1732   -3.3170    0.3498 H   0  0  0  0  0  0  0  0  0  0  0  0
    0.4371   -0.4658    1.8917 H   0  0  0  0  0  0  0  0  0  0  0  0
    1.2417   -1.7420    1.0093 H   0  0  0  0  0  0  0  0  0  0  0  0
    1.8824   -0.0587   -0.7740 H   0  0  0  0  0  0  0  0  0  0  0  0
    1.1795    1.1970    0.2077 H   0  0  0  0  0  0  0  0  0  0  0  0
    3.4234    1.6835   -0.2277 H   0  0  0  0  0  0  0  0  0  0  0  0
   -2.1390    0.3060    0.4293 H   0  0  0  0  0  0  0  0  0  0  0  0
   -1.6997    2.9495   -1.8063 H   0  0  0  0  0  0  0  0  0  0  0  0
   -2.7397    2.2814   -0.5290 H   0  0  0  0  0  0  0  0  0  0  0  0
   -2.9160    1.7480   -2.2091 H   0  0  0  0  0  0  0  0  0  0  0  0
  1 14  1  6  0  0  0
  1  2  1  0  0  0  0
  1  5  1  0  0  0  0
  2  4  1  0  0  0  0
  2  3  2  0  0  0  0
  5 17  1  0  0  0  0
  5 16  1  0  0  0  0
  6  5  1  0  0  0  0
  6  7  1  0  0  0  0
  7  8  2  0  0  0  0
  9  7  1  0  0  0  0
 10  1  1  0  0  0  0
 10 21  1  0  0  0  0
 11 10  1  0  0  0  0
 12 11  2  0  0  0  0
 13 11  1  0  0  0  0
 13 23  1  0  0  0  0
 15  4  1  0  0  0  0
 18  6  1  0  0  0  0
 19  6  1  0  0  0  0
 20  9  1  0  0  0  0
 22 13  1  0  0  0  0
 24 13  1  0  0  0  0
M  END
