omegapdb_1v2k_14.xyz
 OpenBabel11041815263D

 61 65  0  0  0  0  0  0  0  0999 V2000
    6.6606    3.3727   -2.3338 N   0  0  0  0  0  0  0  0  0  0  0  0
    6.4630    2.1786   -2.9085 C   0  0  0  0  0  0  0  0  0  0  0  0
    5.6721    1.1665   -2.3826 C   0  0  0  0  0  0  0  0  0  0  0  0
    5.0135    1.3608   -1.1547 C   0  0  0  0  0  0  0  0  0  0  0  0
    5.2077    2.6166   -0.5523 C   0  0  0  0  0  0  0  0  0  0  0  0
    6.0239    3.5553   -1.1694 C   0  0  0  0  0  0  0  0  0  0  0  0
    4.2396    0.3673   -0.6016 N   0  0  0  0  0  0  0  0  0  0  0  0
    3.5886    0.5589    0.6800 C   0  0  0  0  0  0  0  0  0  0  0  0
    3.4293   -0.7711    1.4127 C   0  0  0  0  0  0  0  0  0  0  0  0
    2.8580   -1.8878    0.5106 C   0  0  0  0  0  0  0  0  0  0  0  0
    2.5027   -1.3453   -0.8748 C   0  0  0  0  0  0  0  0  0  0  0  0
    3.7277   -0.6797   -1.4814 C   0  0  0  0  0  0  0  0  0  0  0  0
    1.7510   -2.7430    1.1132 C   0  0  0  0  0  0  0  0  0  0  0  0
    1.8386   -3.9681    1.0560 O   0  0  0  0  0  0  0  0  0  0  0  0
    0.6960   -2.1300    1.7396 N   0  0  0  0  0  0  0  0  0  0  0  0
    0.2593   -0.7635    1.5145 C   0  0  0  0  0  0  0  0  0  0  0  0
   -0.9349   -0.7540    0.5606 C   0  0  0  0  0  0  0  0  0  0  0  0
   -2.0103   -1.6502    0.9962 N   0  0  0  0  0  0  0  0  0  0  0  0
   -1.5368   -3.0061    1.3200 C   0  0  0  0  0  0  0  0  0  0  0  0
   -0.3599   -2.9754    2.2835 C   0  0  0  0  0  0  0  0  0  0  0  0
   -3.0806   -0.9710    2.0782 S   0  0  0  0  0  0  0  0  0  0  0  0
   -3.9646   -2.0396    2.4976 O   0  0  0  0  0  0  0  0  0  0  0  0
   -2.4000   -0.1558    3.0749 O   0  0  0  0  0  0  0  0  0  0  0  0
   -3.9433    0.1436    1.0020 C   0  0  0  0  0  0  0  0  0  0  0  0
   -4.6693   -0.3798   -0.0466 C   0  0  0  0  0  0  0  0  0  0  0  0
   -5.3848    0.4876   -0.8962 C   0  0  0  0  0  0  0  0  0  0  0  0
   -5.3416    1.8982   -0.6522 C   0  0  0  0  0  0  0  0  0  0  0  0
   -4.5868    2.3870    0.4395 C   0  0  0  0  0  0  0  0  0  0  0  0
   -3.8932    1.5268    1.2622 C   0  0  0  0  0  0  0  0  0  0  0  0
   -6.0556    2.7692   -1.5046 C   0  0  0  0  0  0  0  0  0  0  0  0
   -6.7815    2.2540   -2.5539 C   0  0  0  0  0  0  0  0  0  0  0  0
   -6.8341    0.8668   -2.8045 C   0  0  0  0  0  0  0  0  0  0  0  0
   -6.1455    0.0024   -1.9867 C   0  0  0  0  0  0  0  0  0  0  0  0
   -7.6580    3.3186   -3.6011 Cl  0  0  0  0  0  0  0  0  0  0  0  0
    6.9721    2.0140   -3.8507 H   0  0  0  0  0  0  0  0  0  0  0  0
    5.5970    0.2322   -2.9176 H   0  0  0  0  0  0  0  0  0  0  0  0
    4.7213    2.8869    0.3718 H   0  0  0  0  0  0  0  0  0  0  0  0
    6.1641    4.5206   -0.6974 H   0  0  0  0  0  0  0  0  0  0  0  0
    4.2177    1.2048    1.2872 H   0  0  0  0  0  0  0  0  0  0  0  0
    2.6243    1.0739    0.5689 H   0  0  0  0  0  0  0  0  0  0  0  0
    2.8114   -0.6193    2.2980 H   0  0  0  0  0  0  0  0  0  0  0  0
    4.4117   -1.0789    1.7680 H   0  0  0  0  0  0  0  0  0  0  0  0
    3.6430   -2.6250    0.3434 H   0  0  0  0  0  0  0  0  0  0  0  0
    2.1885   -2.1644   -1.5227 H   0  0  0  0  0  0  0  0  0  0  0  0
    1.6814   -0.6292   -0.8349 H   0  0  0  0  0  0  0  0  0  0  0  0
    3.4727   -0.2428   -2.4513 H   0  0  0  0  0  0  0  0  0  0  0  0
    4.4949   -1.4416   -1.6574 H   0  0  0  0  0  0  0  0  0  0  0  0
    1.0643   -0.1691    1.0982 H   0  0  0  0  0  0  0  0  0  0  0  0
   -0.0369   -0.3252    2.4687 H   0  0  0  0  0  0  0  0  0  0  0  0
   -0.6183   -1.0993   -0.4267 H   0  0  0  0  0  0  0  0  0  0  0  0
   -1.3361    0.2551    0.4533 H   0  0  0  0  0  0  0  0  0  0  0  0
   -2.3731   -3.5704    1.7246 H   0  0  0  0  0  0  0  0  0  0  0  0
   -1.2229   -3.4624    0.3793 H   0  0  0  0  0  0  0  0  0  0  0  0
   -0.6727   -2.5602    3.2435 H   0  0  0  0  0  0  0  0  0  0  0  0
    0.0475   -3.9720    2.4256 H   0  0  0  0  0  0  0  0  0  0  0  0
   -4.6917   -1.4491   -0.2151 H   0  0  0  0  0  0  0  0  0  0  0  0
   -4.5607    3.4536    0.6239 H   0  0  0  0  0  0  0  0  0  0  0  0
   -3.3205    1.8835    2.1062 H   0  0  0  0  0  0  0  0  0  0  0  0
   -6.0319    3.8366   -1.3312 H   0  0  0  0  0  0  0  0  0  0  0  0
   -7.4168    0.5009   -3.6375 H   0  0  0  0  0  0  0  0  0  0  0  0
   -6.1817   -1.0637   -2.1709 H   0  0  0  0  0  0  0  0  0  0  0  0
  1  6  2  0  0  0  0
  2  3  2  0  0  0  0
  2  1  1  0  0  0  0
  3  4  1  0  0  0  0
  4  7  1  0  0  0  0
  4  5  2  0  0  0  0
  5 37  1  0  0  0  0
  6 38  1  0  0  0  0
  6  5  1  0  0  0  0
  7  8  1  0  0  0  0
  8 39  1  0  0  0  0
  8  9  1  0  0  0  0
  9 42  1  0  0  0  0
  9 41  1  0  0  0  0
 10 13  1  0  0  0  0
 10  9  1  0  0  0  0
 11 45  1  0  0  0  0
 11 10  1  0  0  0  0
 12 11  1  0  0  0  0
 12  7  1  0  0  0  0
 13 15  1  0  0  0  0
 14 13  2  0  0  0  0
 15 20  1  0  0  0  0
 16 15  1  0  0  0  0
 16 49  1  0  0  0  0
 17 18  1  0  0  0  0
 17 16  1  0  0  0  0
 18 19  1  0  0  0  0
 18 21  1  0  0  0  0
 19 52  1  0  0  0  0
 19 20  1  0  0  0  0
 20 55  1  0  0  0  0
 20 54  1  0  0  0  0
 21 22  2  0  0  0  0
 21 23  2  0  0  0  0
 24 29  1  0  0  0  0
 24 21  1  0  0  0  0
 25 24  2  0  0  0  0
 26 27  1  0  0  0  0
 26 25  1  0  0  0  0
 27 28  1  0  0  0  0
 28 57  1  0  0  0  0
 28 29  2  0  0  0  0
 29 58  1  0  0  0  0
 30 59  1  0  0  0  0
 30 27  2  0  0  0  0
 31 30  1  0  0  0  0
 32 31  2  0  0  0  0
 32 33  1  0  0  0  0
 33 26  2  0  0  0  0
 34 31  1  0  0  0  0
 35  2  1  0  0  0  0
 36  3  1  0  0  0  0
 40  8  1  0  0  0  0
 43 10  1  0  0  0  0
 44 11  1  0  0  0  0
 46 12  1  0  0  0  0
 47 12  1  0  0  0  0
 48 16  1  0  0  0  0
 50 17  1  0  0  0  0
 51 17  1  0  0  0  0
 53 19  1  0  0  0  0
 56 25  1  0  0  0  0
 60 32  1  0  0  0  0
 61 33  1  0  0  0  0
M  END
