omegapdb_1gs5_03.xyz
 OpenBabel11041815263D

 24 23  0  0  1  0  0  0  0  0999 V2000
   -0.5156   -0.9518   -0.4345 C   0  0  2  0  0  0  0  0  0  0  0  0
   -1.0051   -1.7888    0.7215 C   0  0  0  0  0  0  0  0  0  0  0  0
   -1.8215   -1.4336    1.5432 O   0  0  0  0  0  0  0  0  0  0  0  0
   -0.3982   -2.9899    0.7518 O   0  0  0  0  0  0  0  0  0  0  0  0
    0.9937   -0.7053   -0.3328 C   0  0  0  0  0  0  0  0  0  0  0  0
    1.3712   -0.0161    0.9646 C   0  0  0  0  0  0  0  0  0  0  0  0
    2.8328    0.3270    1.0193 C   0  0  0  0  0  0  0  0  0  0  0  0
    3.6455    0.1206    0.1488 O   0  0  0  0  0  0  0  0  0  0  0  0
    3.1526    0.9144    2.1981 O   0  0  0  0  0  0  0  0  0  0  0  0
   -1.2760    0.2738   -0.4386 N   0  0  0  0  0  0  0  0  0  0  0  0
   -1.4373    0.9781   -1.5979 C   0  0  0  0  0  0  0  0  0  0  0  0
   -0.8436    0.6763   -2.6248 O   0  0  0  0  0  0  0  0  0  0  0  0
   -2.3749    2.1559   -1.4912 C   0  0  0  0  0  0  0  0  0  0  0  0
   -0.7027   -1.4962   -1.3626 H   0  0  0  0  0  0  0  0  0  0  0  0
   -0.7605   -3.4522    1.5232 H   0  0  0  0  0  0  0  0  0  0  0  0
    1.5199   -1.6535   -0.4252 H   0  0  0  0  0  0  0  0  0  0  0  0
    1.2793   -0.0905   -1.1836 H   0  0  0  0  0  0  0  0  0  0  0  0
    1.1472   -0.6322    1.8381 H   0  0  0  0  0  0  0  0  0  0  0  0
    0.8071    0.9090    1.0930 H   0  0  0  0  0  0  0  0  0  0  0  0
    4.1017    1.1013    2.1434 H   0  0  0  0  0  0  0  0  0  0  0  0
   -1.9033    0.4168    0.3377 H   0  0  0  0  0  0  0  0  0  0  0  0
   -2.4489    2.6324   -2.4619 H   0  0  0  0  0  0  0  0  0  0  0  0
   -3.3628    1.8319   -1.1676 H   0  0  0  0  0  0  0  0  0  0  0  0
   -2.0005    2.8723   -0.7620 H   0  0  0  0  0  0  0  0  0  0  0  0
  1 14  1  6  0  0  0
  1  5  1  0  0  0  0
  1  2  1  0  0  0  0
  2  4  1  0  0  0  0
  2  3  2  0  0  0  0
  4 15  1  0  0  0  0
  5  6  1  0  0  0  0
  6  7  1  0  0  0  0
  6 19  1  0  0  0  0
  6 18  1  0  0  0  0
  7  9  1  0  0  0  0
  8  7  2  0  0  0  0
 10  1  1  0  0  0  0
 10 21  1  0  0  0  0
 11 13  1  0  0  0  0
 11 10  1  0  0  0  0
 12 11  2  0  0  0  0
 13 23  1  0  0  0  0
 13 24  1  0  0  0  0
 16  5  1  0  0  0  0
 17  5  1  0  0  0  0
 20  9  1  0  0  0  0
 22 13  1  0  0  0  0
M  END
