omegapdb_1z1r_29.xyz
 OpenBabel11041815263D

 66 68  0  0  1  0  0  0  0  0999 V2000
    0.9662   -1.2043    1.9245 C   0  0  2  0  0  0  0  0  0  0  0  0
    0.3838   -2.6279    1.9843 C   0  0  0  0  0  0  0  0  0  0  0  0
   -0.9299   -2.7632    1.2826 C   0  0  0  0  0  0  0  0  0  0  0  0
   -2.1381   -2.6093    1.9719 C   0  0  0  0  0  0  0  0  0  0  0  0
   -3.3554   -2.6110    1.2991 C   0  0  0  0  0  0  0  0  0  0  0  0
   -3.3894   -2.7729   -0.0877 C   0  0  0  0  0  0  0  0  0  0  0  0
   -2.1945   -2.9912   -0.7824 C   0  0  0  0  0  0  0  0  0  0  0  0
   -0.9831   -2.9787   -0.0975 C   0  0  0  0  0  0  0  0  0  0  0  0
   -4.6225   -2.7572   -0.6732 O   0  0  0  0  0  0  0  0  0  0  0  0
   -4.7233   -2.1762   -1.9752 C   0  0  0  0  0  0  0  0  0  0  0  0
   -4.8996   -0.6681   -1.9256 C   0  0  0  0  0  0  0  0  0  0  0  0
   -3.8027    0.0773   -1.1680 C   0  0  0  0  0  0  0  0  0  0  0  0
   -4.1444    0.2576    0.3015 C   0  0  0  0  0  0  0  0  0  0  0  0
   -5.3025    0.2250    0.7003 O   0  0  0  0  0  0  0  0  0  0  0  0
   -3.1295    0.5722    1.1594 N   0  0  0  0  0  0  0  0  0  0  0  0
   -1.7008    0.4375    1.0106 C   0  0  2  0  0  0  0  0  0  0  0  0
   -1.1430    0.2376    2.4279 C   0  0  0  0  0  0  0  0  0  0  0  0
   -1.7922    0.6551    3.3830 O   0  0  0  0  0  0  0  0  0  0  0  0
    0.1363   -0.2194    2.6228 N   0  0  0  0  0  0  0  0  0  0  0  0
   -1.0631    1.7308    0.4585 C   0  0  0  0  0  0  0  0  0  0  0  0
   -1.0316    1.7545   -1.0531 C   0  0  0  0  0  0  0  0  0  0  0  0
   -0.5415    0.8343   -1.7007 O   0  0  0  0  0  0  0  0  0  0  0  0
   -1.5478    2.8630   -1.6363 N   0  0  0  0  0  0  0  0  0  0  0  0
    1.3520   -0.7276    0.5253 C   0  0  2  0  0  0  0  0  0  0  0  0
    2.0665   -1.7946   -0.1085 O   0  0  0  0  0  0  0  0  0  0  0  0
    2.2594    0.4966    0.5955 C   0  0  0  0  0  0  0  0  0  0  0  0
    3.5250    0.0959    1.1980 N   0  0  0  0  0  0  0  0  0  0  0  0
    4.6395    1.2789    1.4966 S   0  0  0  0  0  0  0  0  0  0  0  0
    5.8187    0.6015    1.9880 O   0  0  0  0  0  0  0  0  0  0  0  0
    3.9548    2.3040    2.2557 O   0  0  0  0  0  0  0  0  0  0  0  0
    5.0170    1.9589   -0.0999 C   0  0  0  0  0  0  0  0  0  0  0  0
    4.3031    3.0637   -0.5601 C   0  0  0  0  0  0  0  0  0  0  0  0
    4.5678    3.5515   -1.8382 C   0  0  0  0  0  0  0  0  0  0  0  0
    5.5284    2.9362   -2.6389 C   0  0  0  0  0  0  0  0  0  0  0  0
    6.2382    1.8339   -2.1616 C   0  0  0  0  0  0  0  0  0  0  0  0
    5.9846    1.3356   -0.8872 C   0  0  0  0  0  0  0  0  0  0  0  0
    1.8964   -1.2207    2.4960 H   0  0  0  0  0  0  0  0  0  0  0  0
    1.1229   -3.3042    1.5567 H   0  0  0  0  0  0  0  0  0  0  0  0
    0.2696   -2.8835    3.0394 H   0  0  0  0  0  0  0  0  0  0  0  0
   -2.1275   -2.4665    3.0460 H   0  0  0  0  0  0  0  0  0  0  0  0
   -4.2900   -2.4551    1.8204 H   0  0  0  0  0  0  0  0  0  0  0  0
   -2.1950   -3.1748   -1.8465 H   0  0  0  0  0  0  0  0  0  0  0  0
   -0.0621   -3.1419   -0.6413 H   0  0  0  0  0  0  0  0  0  0  0  0
   -5.6002   -2.6376   -2.4252 H   0  0  0  0  0  0  0  0  0  0  0  0
   -3.8599   -2.4426   -2.5850 H   0  0  0  0  0  0  0  0  0  0  0  0
   -5.8527   -0.4269   -1.4578 H   0  0  0  0  0  0  0  0  0  0  0  0
   -4.9359   -0.3212   -2.9605 H   0  0  0  0  0  0  0  0  0  0  0  0
   -2.8235   -0.3802   -1.3035 H   0  0  0  0  0  0  0  0  0  0  0  0
   -3.7207    1.0919   -1.5653 H   0  0  0  0  0  0  0  0  0  0  0  0
   -3.4186    0.7251    2.1194 H   0  0  0  0  0  0  0  0  0  0  0  0
   -1.4521   -0.4054    0.3680 H   0  0  0  0  0  0  0  0  0  0  0  0
    0.3478   -0.1501    3.6103 H   0  0  0  0  0  0  0  0  0  0  0  0
   -1.5989    2.5781    0.8839 H   0  0  0  0  0  0  0  0  0  0  0  0
   -0.0246    1.8027    0.7790 H   0  0  0  0  0  0  0  0  0  0  0  0
   -1.5348    2.9305   -2.6392 H   0  0  0  0  0  0  0  0  0  0  0  0
   -1.9808    3.5881   -1.0966 H   0  0  0  0  0  0  0  0  0  0  0  0
    0.4747   -0.4774   -0.0676 H   0  0  0  0  0  0  0  0  0  0  0  0
    2.0219   -1.6333   -1.0580 H   0  0  0  0  0  0  0  0  0  0  0  0
    2.3868    0.9053   -0.4140 H   0  0  0  0  0  0  0  0  0  0  0  0
    1.8262    1.2629    1.2340 H   0  0  0  0  0  0  0  0  0  0  0  0
    3.9489   -0.7022    0.7350 H   0  0  0  0  0  0  0  0  0  0  0  0
    3.5812    3.5388    0.0889 H   0  0  0  0  0  0  0  0  0  0  0  0
    4.0286    4.4137   -2.2054 H   0  0  0  0  0  0  0  0  0  0  0  0
    5.7322    3.3207   -3.6286 H   0  0  0  0  0  0  0  0  0  0  0  0
    6.9936    1.3680   -2.7791 H   0  0  0  0  0  0  0  0  0  0  0  0
    6.5399    0.4976   -0.4894 H   0  0  0  0  0  0  0  0  0  0  0  0
  1  2  1  0  0  0  0
  1 37  1  1  0  0  0
  1 19  1  0  0  0  0
  2 39  1  0  0  0  0
  3  4  2  0  0  0  0
  3  2  1  0  0  0  0
  4 40  1  0  0  0  0
  5 41  1  0  0  0  0
  5  4  1  0  0  0  0
  6  5  2  0  0  0  0
  7  8  2  0  0  0  0
  7  6  1  0  0  0  0
  8  3  1  0  0  0  0
  9  6  1  0  0  0  0
 10 11  1  0  0  0  0
 10  9  1  0  0  0  0
 11 46  1  0  0  0  0
 11 12  1  0  0  0  0
 12 13  1  0  0  0  0
 13 14  2  0  0  0  0
 13 15  1  0  0  0  0
 15 50  1  0  0  0  0
 16 51  1  6  0  0  0
 16 15  1  0  0  0  0
 16 17  1  0  0  0  0
 17 19  1  0  0  0  0
 17 18  2  0  0  0  0
 19 52  1  0  0  0  0
 20 54  1  0  0  0  0
 20 53  1  0  0  0  0
 20 16  1  0  0  0  0
 21 20  1  0  0  0  0
 22 21  2  0  0  0  0
 23 56  1  0  0  0  0
 23 21  1  0  0  0  0
 24 57  1  6  0  0  0
 24 26  1  0  0  0  0
 24  1  1  0  0  0  0
 25 24  1  0  0  0  0
 26 27  1  0  0  0  0
 26 60  1  0  0  0  0
 27 28  1  0  0  0  0
 28 29  2  0  0  0  0
 28 30  2  0  0  0  0
 31 28  1  0  0  0  0
 32 31  1  0  0  0  0
 32 62  1  0  0  0  0
 33 32  2  0  0  0  0
 34 35  2  0  0  0  0
 34 33  1  0  0  0  0
 35 36  1  0  0  0  0
 36 66  1  0  0  0  0
 36 31  2  0  0  0  0
 38  2  1  0  0  0  0
 42  7  1  0  0  0  0
 43  8  1  0  0  0  0
 44 10  1  0  0  0  0
 45 10  1  0  0  0  0
 47 11  1  0  0  0  0
 48 12  1  0  0  0  0
 49 12  1  0  0  0  0
 55 23  1  0  0  0  0
 58 25  1  0  0  0  0
 59 26  1  0  0  0  0
 61 27  1  0  0  0  0
 63 33  1  0  0  0  0
 64 34  1  0  0  0  0
 65 35  1  0  0  0  0
M  END
