omegapdb_1m5f_23.xyz
 OpenBabel11041815263D

 25 25  0  0  1  0  0  0  0  0999 V2000
   -1.2303   -3.6664   -1.3196 O   0  0  0  0  0  0  0  0  0  0  0  0
   -0.7121   -2.8786   -0.3588 C   0  0  0  0  0  0  0  0  0  0  0  0
    0.0618   -3.3000    0.4662 O   0  0  0  0  0  0  0  0  0  0  0  0
   -1.2027   -1.4780   -0.3910 C   0  0  0  0  0  0  0  0  0  0  0  0
   -2.2530   -1.2016   -1.1572 N   0  0  0  0  0  0  0  0  0  0  0  0
   -2.5287    0.1196   -0.9427 O   0  0  0  0  0  0  0  0  0  0  0  0
   -1.6432    0.6319   -0.0487 C   0  0  0  0  0  0  0  0  0  0  0  0
   -0.7610   -0.3474    0.3331 C   0  0  0  0  0  0  0  0  0  0  0  0
    0.4134   -0.2713    1.2510 C   0  0  0  0  0  0  0  0  0  0  0  0
    1.6089    0.4854    0.6704 C   0  0  2  0  0  0  0  0  0  0  0  0
    1.2983    1.9070    0.5262 N   0  0  0  0  0  0  0  0  0  0  0  0
    2.0279   -0.0721   -0.6742 C   0  0  0  0  0  0  0  0  0  0  0  0
    1.6882   -1.1283   -1.1475 O   0  0  0  0  0  0  0  0  0  0  0  0
    2.9015    0.7625   -1.2910 O   0  0  0  0  0  0  0  0  0  0  0  0
   -1.8521    2.0549    0.3092 C   0  0  0  0  0  0  0  0  0  0  0  0
   -1.8509   -3.1255   -1.8343 H   0  0  0  0  0  0  0  0  0  0  0  0
    0.7158   -1.2856    1.5000 H   0  0  0  0  0  0  0  0  0  0  0  0
    0.1329    0.2294    2.1807 H   0  0  0  0  0  0  0  0  0  0  0  0
    2.4677    0.3002    1.3306 H   0  0  0  0  0  0  0  0  0  0  0  0
    2.0627    2.3754    0.0552 H   0  0  0  0  0  0  0  0  0  0  0  0
    1.2278    2.3226    1.4478 H   0  0  0  0  0  0  0  0  0  0  0  0
    3.1354    0.3239   -2.1232 H   0  0  0  0  0  0  0  0  0  0  0  0
   -1.4932    2.2390    1.3185 H   0  0  0  0  0  0  0  0  0  0  0  0
   -2.9129    2.2920    0.2600 H   0  0  0  0  0  0  0  0  0  0  0  0
   -1.3024    2.7112   -0.3608 H   0  0  0  0  0  0  0  0  0  0  0  0
  1  2  1  0  0  0  0
  2  3  2  0  0  0  0
  4  2  1  0  0  0  0
  4  8  1  0  0  0  0
  5  6  1  0  0  0  0
  5  4  2  0  0  0  0
  6  7  1  0  0  0  0
  7 15  1  0  0  0  0
  7  8  2  0  0  0  0
  8  9  1  0  0  0  0
  9 17  1  0  0  0  0
  9 18  1  0  0  0  0
 10  9  1  0  0  0  0
 10 19  1  1  0  0  0
 11 10  1  0  0  0  0
 11 21  1  0  0  0  0
 12 10  1  0  0  0  0
 13 12  2  0  0  0  0
 14 12  1  0  0  0  0
 15 23  1  0  0  0  0
 16  1  1  0  0  0  0
 20 11  1  0  0  0  0
 22 14  1  0  0  0  0
 24 15  1  0  0  0  0
 25 15  1  0  0  0  0
M  END
