omegapdb_1z1r_20.xyz
 OpenBabel11041815263D

 66 68  0  0  1  0  0  0  0  0999 V2000
    0.7436   -1.3608    2.0113 C   0  0  2  0  0  0  0  0  0  0  0  0
    0.7026   -2.8766    1.7228 C   0  0  0  0  0  0  0  0  0  0  0  0
   -0.5809   -3.2094    1.0149 C   0  0  0  0  0  0  0  0  0  0  0  0
   -0.5679   -3.6206   -0.3202 C   0  0  0  0  0  0  0  0  0  0  0  0
   -1.7425   -3.6695   -1.0693 C   0  0  0  0  0  0  0  0  0  0  0  0
   -2.9503   -3.2918   -0.4864 C   0  0  0  0  0  0  0  0  0  0  0  0
   -2.9922   -2.9646    0.8707 C   0  0  0  0  0  0  0  0  0  0  0  0
   -1.8152   -2.9291    1.6117 C   0  0  0  0  0  0  0  0  0  0  0  0
   -4.0772   -3.2167   -1.2727 O   0  0  0  0  0  0  0  0  0  0  0  0
   -4.5270   -1.8559   -1.4132 C   0  0  0  0  0  0  0  0  0  0  0  0
   -3.4969   -1.0339   -2.1754 C   0  0  0  0  0  0  0  0  0  0  0  0
   -3.7251    0.4828   -2.1217 C   0  0  0  0  0  0  0  0  0  0  0  0
   -3.9215    0.9900   -0.7082 C   0  0  0  0  0  0  0  0  0  0  0  0
   -5.0418    1.1480   -0.2427 O   0  0  0  0  0  0  0  0  0  0  0  0
   -2.8058    1.2808    0.0450 N   0  0  0  0  0  0  0  0  0  0  0  0
   -1.4565    0.8284   -0.1960 C   0  0  2  0  0  0  0  0  0  0  0  0
   -0.9791    0.1137    1.0730 C   0  0  0  0  0  0  0  0  0  0  0  0
   -1.5587    0.2789    2.1396 O   0  0  0  0  0  0  0  0  0  0  0  0
    0.1576   -0.6024    0.9199 N   0  0  0  0  0  0  0  0  0  0  0  0
   -0.4795    1.9862   -0.5001 C   0  0  0  0  0  0  0  0  0  0  0  0
   -0.2128    2.8034    0.7448 C   0  0  0  0  0  0  0  0  0  0  0  0
    0.7519    2.5850    1.4739 O   0  0  0  0  0  0  0  0  0  0  0  0
   -1.1177    3.7772    1.0034 N   0  0  0  0  0  0  0  0  0  0  0  0
    2.1330   -0.8131    2.3404 C   0  0  2  0  0  0  0  0  0  0  0  0
    2.0504    0.4822    2.9035 O   0  0  0  0  0  0  0  0  0  0  0  0
    3.0506   -0.7936    1.1222 C   0  0  0  0  0  0  0  0  0  0  0  0
    4.2976   -0.1435    1.5135 N   0  0  0  0  0  0  0  0  0  0  0  0
    5.2204    0.4431    0.2740 S   0  0  0  0  0  0  0  0  0  0  0  0
    6.2878    1.2040    0.8833 O   0  0  0  0  0  0  0  0  0  0  0  0
    5.4674   -0.6657   -0.6243 O   0  0  0  0  0  0  0  0  0  0  0  0
    4.1512    1.5814   -0.5862 C   0  0  0  0  0  0  0  0  0  0  0  0
    3.8369    2.7980    0.0181 C   0  0  0  0  0  0  0  0  0  0  0  0
    2.9897    3.6817   -0.6428 C   0  0  0  0  0  0  0  0  0  0  0  0
    2.4696    3.3518   -1.8951 C   0  0  0  0  0  0  0  0  0  0  0  0
    2.7896    2.1305   -2.4875 C   0  0  0  0  0  0  0  0  0  0  0  0
    3.6279    1.2308   -1.8297 C   0  0  0  0  0  0  0  0  0  0  0  0
    0.1090   -1.1432    2.8695 H   0  0  0  0  0  0  0  0  0  0  0  0
    1.5468   -3.1726    1.0975 H   0  0  0  0  0  0  0  0  0  0  0  0
    0.8017   -3.4057    2.6721 H   0  0  0  0  0  0  0  0  0  0  0  0
    0.3757   -3.8683   -0.7923 H   0  0  0  0  0  0  0  0  0  0  0  0
   -1.7325   -3.9524   -2.1132 H   0  0  0  0  0  0  0  0  0  0  0  0
   -3.9377   -2.7128    1.3319 H   0  0  0  0  0  0  0  0  0  0  0  0
   -1.8558   -2.6228    2.6496 H   0  0  0  0  0  0  0  0  0  0  0  0
   -4.7199   -1.4255   -0.4295 H   0  0  0  0  0  0  0  0  0  0  0  0
   -5.4727   -1.9128   -1.9475 H   0  0  0  0  0  0  0  0  0  0  0  0
   -2.5202   -1.2771   -1.7570 H   0  0  0  0  0  0  0  0  0  0  0  0
   -3.4751   -1.3584   -3.2163 H   0  0  0  0  0  0  0  0  0  0  0  0
   -2.8921    0.9901   -2.6114 H   0  0  0  0  0  0  0  0  0  0  0  0
   -4.6369    0.7435   -2.6554 H   0  0  0  0  0  0  0  0  0  0  0  0
   -3.0130    1.3618    1.0373 H   0  0  0  0  0  0  0  0  0  0  0  0
   -1.4327    0.1395   -1.0374 H   0  0  0  0  0  0  0  0  0  0  0  0
    0.4541   -0.8037   -0.0223 H   0  0  0  0  0  0  0  0  0  0  0  0
    0.4784    1.5916   -0.8338 H   0  0  0  0  0  0  0  0  0  0  0  0
   -0.9050    2.5986   -1.2954 H   0  0  0  0  0  0  0  0  0  0  0  0
   -1.9905    3.7895    0.5053 H   0  0  0  0  0  0  0  0  0  0  0  0
   -1.0736    4.2207    1.9060 H   0  0  0  0  0  0  0  0  0  0  0  0
    2.5792   -1.4431    3.1127 H   0  0  0  0  0  0  0  0  0  0  0  0
    1.5641    1.0708    2.2961 H   0  0  0  0  0  0  0  0  0  0  0  0
    3.2725   -1.7962    0.7617 H   0  0  0  0  0  0  0  0  0  0  0  0
    2.5541   -0.2317    0.3217 H   0  0  0  0  0  0  0  0  0  0  0  0
    4.1143    0.5934    2.1926 H   0  0  0  0  0  0  0  0  0  0  0  0
    4.2625    3.0525    0.9791 H   0  0  0  0  0  0  0  0  0  0  0  0
    2.7382    4.6271   -0.1827 H   0  0  0  0  0  0  0  0  0  0  0  0
    1.8248    4.0502   -2.4118 H   0  0  0  0  0  0  0  0  0  0  0  0
    2.3949    1.8807   -3.4634 H   0  0  0  0  0  0  0  0  0  0  0  0
    3.9084    0.2853   -2.2722 H   0  0  0  0  0  0  0  0  0  0  0  0
  1 24  1  0  0  0  0
  1 37  1  1  0  0  0
  2  1  1  0  0  0  0
  2 39  1  0  0  0  0
  3  8  1  0  0  0  0
  3  2  1  0  0  0  0
  4  3  2  0  0  0  0
  5  6  2  0  0  0  0
  5  4  1  0  0  0  0
  6  7  1  0  0  0  0
  7 42  1  0  0  0  0
  7  8  2  0  0  0  0
  8 43  1  0  0  0  0
  9  6  1  0  0  0  0
 10  9  1  0  0  0  0
 10 44  1  0  0  0  0
 11 12  1  0  0  0  0
 11 46  1  0  0  0  0
 11 10  1  0  0  0  0
 12 13  1  0  0  0  0
 13 14  2  0  0  0  0
 13 15  1  0  0  0  0
 15 50  1  0  0  0  0
 16 51  1  6  0  0  0
 16 15  1  0  0  0  0
 16 17  1  0  0  0  0
 17 18  2  0  0  0  0
 19 17  1  0  0  0  0
 19  1  1  0  0  0  0
 20 16  1  0  0  0  0
 20 21  1  0  0  0  0
 21 23  1  0  0  0  0
 21 22  2  0  0  0  0
 23 56  1  0  0  0  0
 24 25  1  0  0  0  0
 24 57  1  1  0  0  0
 26 27  1  0  0  0  0
 26 24  1  0  0  0  0
 27 61  1  0  0  0  0
 28 29  2  0  0  0  0
 28 27  1  0  0  0  0
 30 28  2  0  0  0  0
 31 32  1  0  0  0  0
 31 28  1  0  0  0  0
 32 62  1  0  0  0  0
 33 63  1  0  0  0  0
 33 32  2  0  0  0  0
 34 33  1  0  0  0  0
 35 34  2  0  0  0  0
 35 36  1  0  0  0  0
 36 31  2  0  0  0  0
 38  2  1  0  0  0  0
 40  4  1  0  0  0  0
 41  5  1  0  0  0  0
 45 10  1  0  0  0  0
 47 11  1  0  0  0  0
 48 12  1  0  0  0  0
 49 12  1  0  0  0  0
 52 19  1  0  0  0  0
 53 20  1  0  0  0  0
 54 20  1  0  0  0  0
 55 23  1  0  0  0  0
 58 25  1  0  0  0  0
 59 26  1  0  0  0  0
 60 26  1  0  0  0  0
 64 34  1  0  0  0  0
 65 35  1  0  0  0  0
 66 36  1  0  0  0  0
M  END
