omegapdb_1xom_17.xyz
 OpenBabel11041815263D

 50 52  0  0  1  0  0  0  0  0999 V2000
    6.9628    0.7217    0.6570 O   0  0  0  0  0  0  0  0  0  0  0  0
    6.1199    0.9656   -0.3854 C   0  0  0  0  0  0  0  0  0  0  0  0
    6.4580    1.7069   -1.2711 O   0  0  0  0  0  0  0  0  0  0  0  0
    4.7733    0.2766   -0.3022 C   0  0  1  0  0  0  0  0  0  0  0  0
    3.9115    0.9434    0.7798 C   0  0  0  0  0  0  0  0  0  0  0  0
    2.5509    0.2637    0.8796 C   0  0  0  0  0  0  0  0  0  0  0  0
    1.7994    0.2659   -0.4691 C   0  0  2  0  0  0  0  0  0  0  0  0
    2.6963   -0.3663   -1.5553 C   0  0  0  0  0  0  0  0  0  0  0  0
    4.0575    0.3117   -1.6459 C   0  0  0  0  0  0  0  0  0  0  0  0
    1.5582    1.6624   -0.8359 C   0  0  0  0  0  0  0  0  0  0  0  0
    1.3901    2.7884   -1.1191 N   0  0  0  0  0  0  0  0  0  0  0  0
    0.4794   -0.4769   -0.3564 C   0  0  0  0  0  0  0  0  0  0  0  0
    0.4687   -1.8180    0.0294 C   0  0  0  0  0  0  0  0  0  0  0  0
   -0.7303   -2.5223    0.1337 C   0  0  0  0  0  0  0  0  0  0  0  0
   -1.9479   -1.9017   -0.1511 C   0  0  0  0  0  0  0  0  0  0  0  0
   -3.1589   -2.5167   -0.1009 O   0  0  0  0  0  0  0  0  0  0  0  0
   -3.1538   -3.8885    0.2615 C   0  0  0  0  0  0  0  0  0  0  0  0
   -1.9492   -0.5439   -0.5250 C   0  0  0  0  0  0  0  0  0  0  0  0
   -0.7428    0.1420   -0.6258 C   0  0  0  0  0  0  0  0  0  0  0  0
   -3.0841    0.1286   -0.8627 O   0  0  0  0  0  0  0  0  0  0  0  0
   -4.1599    0.1648    0.1090 C   0  0  0  0  0  0  0  0  0  0  0  0
   -4.9512    1.4111   -0.2417 C   0  0  0  0  0  0  0  0  0  0  0  0
   -4.0812    2.5669    0.2845 C   0  0  0  0  0  0  0  0  0  0  0  0
   -3.2027    1.9512    1.4037 C   0  0  0  0  0  0  0  0  0  0  0  0
   -3.6340    0.4793    1.4999 C   0  0  0  0  0  0  0  0  0  0  0  0
    6.5406    0.0987    1.2593 H   0  0  0  0  0  0  0  0  0  0  0  0
    4.9401   -0.7681   -0.0116 H   0  0  0  0  0  0  0  0  0  0  0  0
    4.4069    0.9076    1.7520 H   0  0  0  0  0  0  0  0  0  0  0  0
    3.7846    1.9989    0.5265 H   0  0  0  0  0  0  0  0  0  0  0  0
    2.6799   -0.7773    1.1839 H   0  0  0  0  0  0  0  0  0  0  0  0
    1.9292    0.7491    1.6332 H   0  0  0  0  0  0  0  0  0  0  0  0
    2.8177   -1.4223   -1.3026 H   0  0  0  0  0  0  0  0  0  0  0  0
    2.1756   -0.3216   -2.5126 H   0  0  0  0  0  0  0  0  0  0  0  0
    3.9469    1.3517   -1.9560 H   0  0  0  0  0  0  0  0  0  0  0  0
    4.6682   -0.1760   -2.4056 H   0  0  0  0  0  0  0  0  0  0  0  0
    1.3912   -2.3384    0.2499 H   0  0  0  0  0  0  0  0  0  0  0  0
   -0.7031   -3.5610    0.4253 H   0  0  0  0  0  0  0  0  0  0  0  0
   -2.7504   -4.0310    1.2652 H   0  0  0  0  0  0  0  0  0  0  0  0
   -4.1911   -4.2046    0.2397 H   0  0  0  0  0  0  0  0  0  0  0  0
   -2.5777   -4.4817   -0.4500 H   0  0  0  0  0  0  0  0  0  0  0  0
   -0.7901    1.1800   -0.9284 H   0  0  0  0  0  0  0  0  0  0  0  0
   -4.7292   -0.7597    0.0516 H   0  0  0  0  0  0  0  0  0  0  0  0
   -5.1494    1.4706   -1.3099 H   0  0  0  0  0  0  0  0  0  0  0  0
   -5.9077    1.3711    0.2816 H   0  0  0  0  0  0  0  0  0  0  0  0
   -4.6915    3.3902    0.6500 H   0  0  0  0  0  0  0  0  0  0  0  0
   -3.4543    2.9575   -0.5137 H   0  0  0  0  0  0  0  0  0  0  0  0
   -2.1493    2.0137    1.1346 H   0  0  0  0  0  0  0  0  0  0  0  0
   -3.3230    2.4665    2.3546 H   0  0  0  0  0  0  0  0  0  0  0  0
   -4.4609    0.3595    2.2024 H   0  0  0  0  0  0  0  0  0  0  0  0
   -2.8333   -0.1890    1.8156 H   0  0  0  0  0  0  0  0  0  0  0  0
  1 26  1  0  0  0  0
  2  4  1  0  0  0  0
  2  1  1  0  0  0  0
  3  2  2  0  0  0  0
  4 27  1  1  0  0  0
  4  5  1  0  0  0  0
  5  6  1  0  0  0  0
  5 28  1  0  0  0  0
  6 30  1  0  0  0  0
  6 31  1  0  0  0  0
  7 10  1  6  0  0  0
  7 12  1  0  0  0  0
  7  6  1  0  0  0  0
  8 32  1  0  0  0  0
  8  7  1  0  0  0  0
  9  8  1  0  0  0  0
  9  4  1  0  0  0  0
 11 10  3  0  0  0  0
 12 13  2  0  0  0  0
 13 14  1  0  0  0  0
 13 36  1  0  0  0  0
 14 37  1  0  0  0  0
 15 16  1  0  0  0  0
 15 14  2  0  0  0  0
 16 17  1  0  0  0  0
 17 38  1  0  0  0  0
 18 15  1  0  0  0  0
 19 18  2  0  0  0  0
 19 12  1  0  0  0  0
 20 18  1  0  0  0  0
 20 21  1  0  0  0  0
 21 25  1  0  0  0  0
 22 21  1  0  0  0  0
 22 44  1  0  0  0  0
 22 23  1  0  0  0  0
 23 45  1  0  0  0  0
 23 24  1  0  0  0  0
 24 25  1  0  0  0  0
 24 48  1  0  0  0  0
 25 50  1  0  0  0  0
 25 49  1  0  0  0  0
 29  5  1  0  0  0  0
 33  8  1  0  0  0  0
 34  9  1  0  0  0  0
 35  9  1  0  0  0  0
 39 17  1  0  0  0  0
 40 17  1  0  0  0  0
 41 19  1  0  0  0  0
 42 21  1  0  0  0  0
 43 22  1  0  0  0  0
 46 23  1  0  0  0  0
 47 24  1  0  0  0  0
M  END
