omegapdb_2byh_09.xyz
 OpenBabel11041815263D

 40 42  0  0  0  0  0  0  0  0999 V2000
    6.3785    0.6373    3.0133 O   0  0  0  0  0  0  0  0  0  0  0  0
    5.5911    1.3215    2.3763 C   0  0  0  0  0  0  0  0  0  0  0  0
    5.8129    2.8035    2.1981 C   0  0  0  0  0  0  0  0  0  0  0  0
    4.3820    0.7107    1.7538 C   0  0  0  0  0  0  0  0  0  0  0  0
    3.4557    1.4523    1.0171 C   0  0  0  0  0  0  0  0  0  0  0  0
    2.3344    0.8559    0.4482 C   0  0  0  0  0  0  0  0  0  0  0  0
    2.1312   -0.5180    0.6164 C   0  0  0  0  0  0  0  0  0  0  0  0
    3.0590   -1.2677    1.3547 C   0  0  0  0  0  0  0  0  0  0  0  0
    4.1681   -0.6624    1.9166 C   0  0  0  0  0  0  0  0  0  0  0  0
    1.0405   -1.2091    0.0756 N   0  0  0  0  0  0  0  0  0  0  0  0
   -0.0127   -0.7116   -0.6544 C   0  0  0  0  0  0  0  0  0  0  0  0
   -0.1725    0.4736   -0.9149 O   0  0  0  0  0  0  0  0  0  0  0  0
   -0.9380   -1.7703   -1.1079 C   0  0  0  0  0  0  0  0  0  0  0  0
   -0.6433   -3.1072   -1.4407 C   0  0  0  0  0  0  0  0  0  0  0  0
   -1.7398   -3.7847   -1.8147 N   0  0  0  0  0  0  0  0  0  0  0  0
   -2.7201   -2.8825   -1.7066 N   0  0  0  0  0  0  0  0  0  0  0  0
   -2.3163   -1.6435   -1.2983 C   0  0  0  0  0  0  0  0  0  0  0  0
   -3.2729   -0.5539   -1.1175 C   0  0  0  0  0  0  0  0  0  0  0  0
   -3.0787    0.6839   -1.7377 C   0  0  0  0  0  0  0  0  0  0  0  0
   -4.0211    1.6867   -1.5926 C   0  0  0  0  0  0  0  0  0  0  0  0
   -3.7971    3.2287   -2.3579 Cl  0  0  0  0  0  0  0  0  0  0  0  0
   -5.1799    1.4890   -0.8319 C   0  0  0  0  0  0  0  0  0  0  0  0
   -6.1228    2.4466   -0.6740 O   0  0  0  0  0  0  0  0  0  0  0  0
   -5.3665    0.2651   -0.2003 C   0  0  0  0  0  0  0  0  0  0  0  0
   -4.4241   -0.7454   -0.3351 C   0  0  0  0  0  0  0  0  0  0  0  0
   -4.6805   -1.9181    0.3240 O   0  0  0  0  0  0  0  0  0  0  0  0
    4.9764    3.3679    2.6089 H   0  0  0  0  0  0  0  0  0  0  0  0
    6.7284    3.0824    2.7093 H   0  0  0  0  0  0  0  0  0  0  0  0
    5.8917    3.0544    1.1409 H   0  0  0  0  0  0  0  0  0  0  0  0
    3.5963    2.5148    0.8774 H   0  0  0  0  0  0  0  0  0  0  0  0
    1.6204    1.4349   -0.1119 H   0  0  0  0  0  0  0  0  0  0  0  0
    2.9015   -2.3320    1.4834 H   0  0  0  0  0  0  0  0  0  0  0  0
    4.8865   -1.2339    2.4871 H   0  0  0  0  0  0  0  0  0  0  0  0
    0.9888   -2.1893    0.3036 H   0  0  0  0  0  0  0  0  0  0  0  0
    0.3137   -3.6022   -1.4653 H   0  0  0  0  0  0  0  0  0  0  0  0
   -3.6593   -3.1418   -1.9700 H   0  0  0  0  0  0  0  0  0  0  0  0
   -2.1843    0.8574   -2.3155 H   0  0  0  0  0  0  0  0  0  0  0  0
   -5.8237    3.2257   -1.1648 H   0  0  0  0  0  0  0  0  0  0  0  0
   -6.2432    0.1069    0.4106 H   0  0  0  0  0  0  0  0  0  0  0  0
   -3.8600   -2.4255    0.3623 H   0  0  0  0  0  0  0  0  0  0  0  0
  2  1  2  0  0  0  0
  3  2  1  0  0  0  0
  3 27  1  0  0  0  0
  3 28  1  0  0  0  0
  4  9  1  0  0  0  0
  4  2  1  0  0  0  0
  5  4  2  0  0  0  0
  6  7  2  0  0  0  0
  6  5  1  0  0  0  0
  7  8  1  0  0  0  0
  8 32  1  0  0  0  0
  8  9  2  0  0  0  0
  9 33  1  0  0  0  0
 10 34  1  0  0  0  0
 10  7  1  0  0  0  0
 11 10  1  0  0  0  0
 12 11  2  0  0  0  0
 13 11  1  0  0  0  0
 14 13  1  0  0  0  0
 15 16  1  0  0  0  0
 15 14  2  0  0  0  0
 16 17  1  0  0  0  0
 17 18  1  0  0  0  0
 17 13  2  0  0  0  0
 18 25  2  0  0  0  0
 19 20  2  0  0  0  0
 19 18  1  0  0  0  0
 20 22  1  0  0  0  0
 21 20  1  0  0  0  0
 22 23  1  0  0  0  0
 22 24  2  0  0  0  0
 24 39  1  0  0  0  0
 25 24  1  0  0  0  0
 25 26  1  0  0  0  0
 26 40  1  0  0  0  0
 29  3  1  0  0  0  0
 30  5  1  0  0  0  0
 31  6  1  0  0  0  0
 35 14  1  0  0  0  0
 36 16  1  0  0  0  0
 37 19  1  0  0  0  0
 38 23  1  0  0  0  0
M  END
