omegapdb_1m5f_14.xyz
 OpenBabel11041815263D

 25 25  0  0  1  0  0  0  0  0999 V2000
    0.0719   -2.7677   -0.5690 O   0  0  0  0  0  0  0  0  0  0  0  0
   -1.2282   -2.7347   -0.1706 C   0  0  0  0  0  0  0  0  0  0  0  0
   -1.9007   -3.7258   -0.0310 O   0  0  0  0  0  0  0  0  0  0  0  0
   -1.6698   -1.3436    0.0603 C   0  0  0  0  0  0  0  0  0  0  0  0
   -2.8715   -1.1678    0.6159 N   0  0  0  0  0  0  0  0  0  0  0  0
   -3.0183    0.1905    0.7150 O   0  0  0  0  0  0  0  0  0  0  0  0
   -1.9246    0.8190    0.2257 C   0  0  0  0  0  0  0  0  0  0  0  0
   -1.0205   -0.1138   -0.2155 C   0  0  0  0  0  0  0  0  0  0  0  0
    0.3196    0.1595   -0.8089 C   0  0  0  0  0  0  0  0  0  0  0  0
    1.4101    0.1049    0.2716 C   0  0  2  0  0  0  0  0  0  0  0  0
    1.1314    1.0831    1.3128 N   0  0  0  0  0  0  0  0  0  0  0  0
    2.7690    0.4023   -0.3176 C   0  0  0  0  0  0  0  0  0  0  0  0
    3.5691    1.1874    0.1372 O   0  0  0  0  0  0  0  0  0  0  0  0
    3.0109   -0.3406   -1.4195 O   0  0  0  0  0  0  0  0  0  0  0  0
   -1.9334    2.3005    0.2487 C   0  0  0  0  0  0  0  0  0  0  0  0
    0.2694   -3.7075   -0.7050 H   0  0  0  0  0  0  0  0  0  0  0  0
    0.5419   -0.5568   -1.5941 H   0  0  0  0  0  0  0  0  0  0  0  0
    0.3235    1.1610   -1.2405 H   0  0  0  0  0  0  0  0  0  0  0  0
    1.4654   -0.9275    0.6343 H   0  0  0  0  0  0  0  0  0  0  0  0
    2.0078    1.3863    1.7216 H   0  0  0  0  0  0  0  0  0  0  0  0
    0.5739    0.6652    2.0453 H   0  0  0  0  0  0  0  0  0  0  0  0
    3.9054   -0.0987   -1.7040 H   0  0  0  0  0  0  0  0  0  0  0  0
   -2.4156    2.6559    1.1570 H   0  0  0  0  0  0  0  0  0  0  0  0
   -2.4767    2.7049   -0.6049 H   0  0  0  0  0  0  0  0  0  0  0  0
   -0.9098    2.6640    0.2351 H   0  0  0  0  0  0  0  0  0  0  0  0
  1  2  1  0  0  0  0
  2  3  2  0  0  0  0
  2  4  1  0  0  0  0
  4  5  2  0  0  0  0
  5  6  1  0  0  0  0
  7 15  1  0  0  0  0
  7  6  1  0  0  0  0
  8  4  1  0  0  0  0
  8  7  2  0  0  0  0
  9  8  1  0  0  0  0
  9 10  1  0  0  0  0
 10 19  1  1  0  0  0
 10 11  1  0  0  0  0
 11 20  1  0  0  0  0
 11 21  1  0  0  0  0
 12 13  2  0  0  0  0
 12 10  1  0  0  0  0
 14 12  1  0  0  0  0
 15 23  1  0  0  0  0
 16  1  1  0  0  0  0
 17  9  1  0  0  0  0
 18  9  1  0  0  0  0
 22 14  1  0  0  0  0
 24 15  1  0  0  0  0
 25 15  1  0  0  0  0
M  END
