omegapdb_1m5f_08.xyz
 OpenBabel11041815263D

 25 25  0  0  1  0  0  0  0  0999 V2000
   -1.9555   -2.5185   -2.4289 O   0  0  0  0  0  0  0  0  0  0  0  0
   -1.0960   -2.1050   -1.4844 C   0  0  0  0  0  0  0  0  0  0  0  0
   -0.0050   -2.6099   -1.3063 O   0  0  0  0  0  0  0  0  0  0  0  0
   -1.6230   -0.9869   -0.6828 C   0  0  0  0  0  0  0  0  0  0  0  0
   -2.8960   -0.6098   -0.8011 N   0  0  0  0  0  0  0  0  0  0  0  0
   -3.0452    0.4157    0.1002 O   0  0  0  0  0  0  0  0  0  0  0  0
   -1.8767    0.6414    0.7441 C   0  0  0  0  0  0  0  0  0  0  0  0
   -0.9250   -0.2320    0.2893 C   0  0  0  0  0  0  0  0  0  0  0  0
    0.5055   -0.2993    0.6942 C   0  0  0  0  0  0  0  0  0  0  0  0
    1.3838    0.5848   -0.2090 C   0  0  2  0  0  0  0  0  0  0  0  0
    1.2521    0.1686   -1.5871 N   0  0  0  0  0  0  0  0  0  0  0  0
    2.8050    0.5341    0.3218 C   0  0  0  0  0  0  0  0  0  0  0  0
    3.7339   -0.0309   -0.2046 O   0  0  0  0  0  0  0  0  0  0  0  0
    2.9131    1.1976    1.5002 O   0  0  0  0  0  0  0  0  0  0  0  0
   -1.8654    1.7319    1.7468 C   0  0  0  0  0  0  0  0  0  0  0  0
   -1.5088   -3.2559   -2.8722 H   0  0  0  0  0  0  0  0  0  0  0  0
    0.8593   -1.3274    0.6237 H   0  0  0  0  0  0  0  0  0  0  0  0
    0.6191    0.0288    1.7265 H   0  0  0  0  0  0  0  0  0  0  0  0
    1.0368    1.6162   -0.1145 H   0  0  0  0  0  0  0  0  0  0  0  0
    1.5626   -0.7931   -1.6749 H   0  0  0  0  0  0  0  0  0  0  0  0
    1.8673    0.7208   -2.1724 H   0  0  0  0  0  0  0  0  0  0  0  0
    3.8360    1.0916    1.7769 H   0  0  0  0  0  0  0  0  0  0  0  0
   -2.0529    2.6956    1.2754 H   0  0  0  0  0  0  0  0  0  0  0  0
   -0.8944    1.7707    2.2347 H   0  0  0  0  0  0  0  0  0  0  0  0
   -2.6306    1.5706    2.5043 H   0  0  0  0  0  0  0  0  0  0  0  0
  1  2  1  0  0  0  0
  2  3  2  0  0  0  0
  2  4  1  0  0  0  0
  4  8  1  0  0  0  0
  5  4  2  0  0  0  0
  5  6  1  0  0  0  0
  6  7  1  0  0  0  0
  7 15  1  0  0  0  0
  8  9  1  0  0  0  0
  8  7  2  0  0  0  0
  9 18  1  0  0  0  0
 10 19  1  1  0  0  0
 10 12  1  0  0  0  0
 10  9  1  0  0  0  0
 11 10  1  0  0  0  0
 12 14  1  0  0  0  0
 13 12  2  0  0  0  0
 14 22  1  0  0  0  0
 15 24  1  0  0  0  0
 15 25  1  0  0  0  0
 16  1  1  0  0  0  0
 17  9  1  0  0  0  0
 20 11  1  0  0  0  0
 21 11  1  0  0  0  0
 23 15  1  0  0  0  0
M  END
