omegapdb_2f7p_03.xyz
 OpenBabel11041815263D

 34 35  0  0  1  0  0  0  0  0999 V2000
   -1.2027   -0.6632   -0.2559 C   0  0  1  0  0  0  0  0  0  0  0  0
    0.1280   -0.0771   -0.2473 N   0  0  0  0  0  0  0  0  0  0  0  0
    1.1794   -1.0420    0.0997 C   0  0  0  0  0  0  0  0  0  0  0  0
    2.5096   -0.3524    0.1442 C   0  0  0  0  0  0  0  0  0  0  0  0
    3.4106   -0.4690   -0.9151 C   0  0  0  0  0  0  0  0  0  0  0  0
    4.6253    0.2143   -0.8906 C   0  0  0  0  0  0  0  0  0  0  0  0
    4.9459    1.0225    0.1974 C   0  0  0  0  0  0  0  0  0  0  0  0
    4.0507    1.1449    1.2603 C   0  0  0  0  0  0  0  0  0  0  0  0
    2.8387    0.4622    1.2313 C   0  0  0  0  0  0  0  0  0  0  0  0
   -1.7942   -0.6369    1.1857 C   0  0  1  0  0  0  0  0  0  0  0  0
   -1.1808    0.4083    1.9198 O   0  0  0  0  0  0  0  0  0  0  0  0
   -3.3119   -0.3357    1.0011 C   0  0  1  0  0  0  0  0  0  0  0  0
   -3.6270    0.9604    1.4750 O   0  0  0  0  0  0  0  0  0  0  0  0
   -3.5381   -0.3481   -0.5207 C   0  0  1  0  0  0  0  0  0  0  0  0
   -4.6445    0.4216   -0.9146 O   0  0  0  0  0  0  0  0  0  0  0  0
   -2.2009    0.1565   -1.0530 C   0  0  2  0  0  0  0  0  0  0  0  0
   -1.9525   -0.0504   -2.8340 S   0  0  0  0  0  0  0  0  0  0  0  0
   -1.2026   -1.6940   -0.6336 H   0  0  0  0  0  0  0  0  0  0  0  0
    0.3334    0.3480   -1.1464 H   0  0  0  0  0  0  0  0  0  0  0  0
    0.9323   -1.4488    1.0825 H   0  0  0  0  0  0  0  0  0  0  0  0
    1.2087   -1.8793   -0.6076 H   0  0  0  0  0  0  0  0  0  0  0  0
    3.1615   -1.1018   -1.7584 H   0  0  0  0  0  0  0  0  0  0  0  0
    5.3179    0.1146   -1.7151 H   0  0  0  0  0  0  0  0  0  0  0  0
    5.8887    1.5512    0.2200 H   0  0  0  0  0  0  0  0  0  0  0  0
    4.2987    1.7680    2.1086 H   0  0  0  0  0  0  0  0  0  0  0  0
    2.1426    0.5532    2.0565 H   0  0  0  0  0  0  0  0  0  0  0  0
   -1.6395   -1.5828    1.7047 H   0  0  0  0  0  0  0  0  0  0  0  0
   -0.4542    0.6926    1.3167 H   0  0  0  0  0  0  0  0  0  0  0  0
   -3.9417   -1.0648    1.5102 H   0  0  0  0  0  0  0  0  0  0  0  0
   -2.7917    1.2801    1.8604 H   0  0  0  0  0  0  0  0  0  0  0  0
   -3.6975   -1.3671   -0.8801 H   0  0  0  0  0  0  0  0  0  0  0  0
   -4.6664    1.1494   -0.2750 H   0  0  0  0  0  0  0  0  0  0  0  0
   -2.0923    1.2101   -0.7851 H   0  0  0  0  0  0  0  0  0  0  0  0
   -3.0337    0.6554   -3.1860 H   0  0  0  0  0  0  0  0  0  0  0  0
  1 18  1  6  0  0  0
  1  2  1  0  0  0  0
  1 10  1  0  0  0  0
  2  3  1  0  0  0  0
  3  4  1  0  0  0  0
  3 20  1  0  0  0  0
  4  9  2  0  0  0  0
  5  6  2  0  0  0  0
  5  4  1  0  0  0  0
  6  7  1  0  0  0  0
  7 24  1  0  0  0  0
  7  8  2  0  0  0  0
  8 25  1  0  0  0  0
  9  8  1  0  0  0  0
  9 26  1  0  0  0  0
 10 27  1  1  0  0  0
 10 11  1  0  0  0  0
 12 10  1  0  0  0  0
 12 13  1  0  0  0  0
 12 29  1  1  0  0  0
 13 30  1  0  0  0  0
 14 31  1  6  0  0  0
 14 12  1  0  0  0  0
 15 14  1  0  0  0  0
 15 32  1  0  0  0  0
 16 33  1  1  0  0  0
 16 14  1  0  0  0  0
 16  1  1  0  0  0  0
 17 16  1  0  0  0  0
 19  2  1  0  0  0  0
 21  3  1  0  0  0  0
 22  5  1  0  0  0  0
 23  6  1  0  0  0  0
 28 11  1  0  0  0  0
 34 17  1  0  0  0  0
M  END
