omegapdb_1xom_15.xyz
 OpenBabel11041815263D

 50 52  0  0  1  0  0  0  0  0999 V2000
    5.8546    2.9376   -0.0505 O   0  0  0  0  0  0  0  0  0  0  0  0
    5.7156    1.6309   -0.4106 C   0  0  0  0  0  0  0  0  0  0  0  0
    6.6899    0.9667   -0.6509 O   0  0  0  0  0  0  0  0  0  0  0  0
    4.2906    1.1172   -0.4401 C   0  0  1  0  0  0  0  0  0  0  0  0
    4.2048   -0.2132   -1.1757 C   0  0  0  0  0  0  0  0  0  0  0  0
    2.7734   -0.7341   -1.1930 C   0  0  0  0  0  0  0  0  0  0  0  0
    2.1898   -0.8859    0.2281 C   0  0  2  0  0  0  0  0  0  0  0  0
    2.3231    0.4549    0.9830 C   0  0  0  0  0  0  0  0  0  0  0  0
    3.7574    0.9703    0.9923 C   0  0  0  0  0  0  0  0  0  0  0  0
    2.9921   -1.8793    0.9434 C   0  0  0  0  0  0  0  0  0  0  0  0
    3.6627   -2.6543    1.5140 N   0  0  0  0  0  0  0  0  0  0  0  0
    0.7394   -1.3303    0.1777 C   0  0  0  0  0  0  0  0  0  0  0  0
    0.2978   -2.5253    0.7388 C   0  0  0  0  0  0  0  0  0  0  0  0
   -1.0459   -2.8993    0.6661 C   0  0  0  0  0  0  0  0  0  0  0  0
   -1.9767   -2.0804    0.0284 C   0  0  0  0  0  0  0  0  0  0  0  0
   -3.2968   -2.3647   -0.1149 O   0  0  0  0  0  0  0  0  0  0  0  0
   -3.7272   -3.6138    0.4048 C   0  0  0  0  0  0  0  0  0  0  0  0
   -1.5403   -0.8618   -0.5299 C   0  0  0  0  0  0  0  0  0  0  0  0
   -0.2015   -0.5071   -0.4535 C   0  0  0  0  0  0  0  0  0  0  0  0
   -2.4123   -0.0470   -1.2000 O   0  0  0  0  0  0  0  0  0  0  0  0
   -3.3251    0.6385   -0.3290 C   0  0  0  0  0  0  0  0  0  0  0  0
   -4.3561    1.3793   -1.1816 C   0  0  0  0  0  0  0  0  0  0  0  0
   -4.6839    2.6733   -0.4014 C   0  0  0  0  0  0  0  0  0  0  0  0
   -3.8936    2.5621    0.9147 C   0  0  0  0  0  0  0  0  0  0  0  0
   -2.6793    1.7240    0.5241 C   0  0  0  0  0  0  0  0  0  0  0  0
    4.9794    3.3179    0.0860 H   0  0  0  0  0  0  0  0  0  0  0  0
    3.6710    1.8567   -0.9625 H   0  0  0  0  0  0  0  0  0  0  0  0
    4.5730   -0.0988   -2.1951 H   0  0  0  0  0  0  0  0  0  0  0  0
    4.8666   -0.9280   -0.6844 H   0  0  0  0  0  0  0  0  0  0  0  0
    2.1285   -0.0415   -1.7386 H   0  0  0  0  0  0  0  0  0  0  0  0
    2.7165   -1.6968   -1.7024 H   0  0  0  0  0  0  0  0  0  0  0  0
    1.9506    0.3276    2.0005 H   0  0  0  0  0  0  0  0  0  0  0  0
    1.6726    1.1779    0.4856 H   0  0  0  0  0  0  0  0  0  0  0  0
    4.4010    0.2749    1.5368 H   0  0  0  0  0  0  0  0  0  0  0  0
    3.7967    1.9224    1.5250 H   0  0  0  0  0  0  0  0  0  0  0  0
    0.9985   -3.1823    1.2361 H   0  0  0  0  0  0  0  0  0  0  0  0
   -1.3497   -3.8384    1.1022 H   0  0  0  0  0  0  0  0  0  0  0  0
   -4.7872   -3.6765    0.1842 H   0  0  0  0  0  0  0  0  0  0  0  0
   -3.5747   -3.6672    1.4837 H   0  0  0  0  0  0  0  0  0  0  0  0
   -3.2043   -4.4406   -0.0775 H   0  0  0  0  0  0  0  0  0  0  0  0
    0.0786    0.4319   -0.9130 H   0  0  0  0  0  0  0  0  0  0  0  0
   -3.8115   -0.0956    0.3168 H   0  0  0  0  0  0  0  0  0  0  0  0
   -3.8980    1.5983   -2.1451 H   0  0  0  0  0  0  0  0  0  0  0  0
   -5.2322    0.7626   -1.3681 H   0  0  0  0  0  0  0  0  0  0  0  0
   -5.7508    2.8003   -0.2314 H   0  0  0  0  0  0  0  0  0  0  0  0
   -4.3424    3.5434   -0.9605 H   0  0  0  0  0  0  0  0  0  0  0  0
   -4.4804    2.0238    1.6614 H   0  0  0  0  0  0  0  0  0  0  0  0
   -3.6338    3.5303    1.3381 H   0  0  0  0  0  0  0  0  0  0  0  0
   -2.1168    1.3320    1.3700 H   0  0  0  0  0  0  0  0  0  0  0  0
   -2.0034    2.3075   -0.1069 H   0  0  0  0  0  0  0  0  0  0  0  0
  1 26  1  0  0  0  0
  2  1  1  0  0  0  0
  3  2  2  0  0  0  0
  4 27  1  6  0  0  0
  4  2  1  0  0  0  0
  4  9  1  0  0  0  0
  5 29  1  0  0  0  0
  5  4  1  0  0  0  0
  6  5  1  0  0  0  0
  6  7  1  0  0  0  0
  7 12  1  6  0  0  0
  7 10  1  0  0  0  0
  7  8  1  0  0  0  0
  8  9  1  0  0  0  0
  8 32  1  0  0  0  0
  9 35  1  0  0  0  0
  9 34  1  0  0  0  0
 10 11  3  0  0  0  0
 12 13  2  0  0  0  0
 13 36  1  0  0  0  0
 14 13  1  0  0  0  0
 14 37  1  0  0  0  0
 15 14  2  0  0  0  0
 16 15  1  0  0  0  0
 16 17  1  0  0  0  0
 17 39  1  0  0  0  0
 18 19  2  0  0  0  0
 18 15  1  0  0  0  0
 19 12  1  0  0  0  0
 20 18  1  0  0  0  0
 20 21  1  0  0  0  0
 21 42  1  0  0  0  0
 21 25  1  0  0  0  0
 22 23  1  0  0  0  0
 22 21  1  0  0  0  0
 23 45  1  0  0  0  0
 23 24  1  0  0  0  0
 24 48  1  0  0  0  0
 24 47  1  0  0  0  0
 25 24  1  0  0  0  0
 25 49  1  0  0  0  0
 28  5  1  0  0  0  0
 30  6  1  0  0  0  0
 31  6  1  0  0  0  0
 33  8  1  0  0  0  0
 38 17  1  0  0  0  0
 40 17  1  0  0  0  0
 41 19  1  0  0  0  0
 43 22  1  0  0  0  0
 44 22  1  0  0  0  0
 46 23  1  0  0  0  0
 50 25  1  0  0  0  0
M  END
