omegapdb_1xom_02.xyz
 OpenBabel11041815263D

 50 52  0  0  1  0  0  0  0  0999 V2000
    5.7012    2.9840   -0.0046 O   0  0  0  0  0  0  0  0  0  0  0  0
    5.6711    1.6833   -0.3905 C   0  0  0  0  0  0  0  0  0  0  0  0
    6.6734    1.0517   -0.6327 O   0  0  0  0  0  0  0  0  0  0  0  0
    4.2608    1.1603   -0.4354 C   0  0  1  0  0  0  0  0  0  0  0  0
    4.1862   -0.1630   -1.1845 C   0  0  0  0  0  0  0  0  0  0  0  0
    2.7564   -0.6887   -1.2084 C   0  0  0  0  0  0  0  0  0  0  0  0
    2.1711   -0.8543    0.2109 C   0  0  2  0  0  0  0  0  0  0  0  0
    2.2958    0.4815    0.9758 C   0  0  0  0  0  0  0  0  0  0  0  0
    3.7265    1.0049    0.9950 C   0  0  0  0  0  0  0  0  0  0  0  0
    2.9784   -1.8498    0.9179 C   0  0  0  0  0  0  0  0  0  0  0  0
    3.6517   -2.6274    1.4819 N   0  0  0  0  0  0  0  0  0  0  0  0
    0.7236   -1.3076    0.1526 C   0  0  0  0  0  0  0  0  0  0  0  0
    0.2886   -2.5086    0.7066 C   0  0  0  0  0  0  0  0  0  0  0  0
   -1.0519   -2.8923    0.6267 C   0  0  0  0  0  0  0  0  0  0  0  0
   -1.9867   -2.0773   -0.0100 C   0  0  0  0  0  0  0  0  0  0  0  0
   -3.3038   -2.3743   -0.1615 O   0  0  0  0  0  0  0  0  0  0  0  0
   -3.7211   -3.6361    0.3368 C   0  0  0  0  0  0  0  0  0  0  0  0
   -1.5582   -0.8510   -0.5578 C   0  0  0  0  0  0  0  0  0  0  0  0
   -0.2216   -0.4882   -0.4765 C   0  0  0  0  0  0  0  0  0  0  0  0
   -2.4314   -0.0347   -1.2249 O   0  0  0  0  0  0  0  0  0  0  0  0
   -3.3734    0.6160   -0.3610 C   0  0  0  0  0  0  0  0  0  0  0  0
   -4.3474    1.4330   -1.1865 C   0  0  0  0  0  0  0  0  0  0  0  0
   -5.0039    2.3042   -0.1187 C   0  0  0  0  0  0  0  0  0  0  0  0
   -3.8392    2.7000    0.8168 C   0  0  0  0  0  0  0  0  0  0  0  0
   -2.7343    1.6436    0.5774 C   0  0  0  0  0  0  0  0  0  0  0  0
    6.6406    3.2204    0.0302 H   0  0  0  0  0  0  0  0  0  0  0  0
    3.6496    1.9131   -0.9422 H   0  0  0  0  0  0  0  0  0  0  0  0
    4.8478   -0.8830   -0.7002 H   0  0  0  0  0  0  0  0  0  0  0  0
    4.5530   -0.0384   -2.2034 H   0  0  0  0  0  0  0  0  0  0  0  0
    2.1112    0.0075   -1.7489 H   0  0  0  0  0  0  0  0  0  0  0  0
    2.7026   -1.6473   -1.7261 H   0  0  0  0  0  0  0  0  0  0  0  0
    1.6453    1.2057    0.4805 H   0  0  0  0  0  0  0  0  0  0  0  0
    1.9186    0.3454    1.9905 H   0  0  0  0  0  0  0  0  0  0  0  0
    3.7642    1.9629    1.5126 H   0  0  0  0  0  0  0  0  0  0  0  0
    4.3687    0.3091    1.5416 H   0  0  0  0  0  0  0  0  0  0  0  0
    0.9923   -3.1633    1.2026 H   0  0  0  0  0  0  0  0  0  0  0  0
   -1.3501   -3.8361    1.0567 H   0  0  0  0  0  0  0  0  0  0  0  0
   -4.7778   -3.7113    0.1044 H   0  0  0  0  0  0  0  0  0  0  0  0
   -3.5792   -3.7023    1.4165 H   0  0  0  0  0  0  0  0  0  0  0  0
   -3.1810   -4.4487   -0.1508 H   0  0  0  0  0  0  0  0  0  0  0  0
    0.0538    0.4545   -0.9307 H   0  0  0  0  0  0  0  0  0  0  0  0
   -3.9166   -0.1419    0.2080 H   0  0  0  0  0  0  0  0  0  0  0  0
   -5.0447    0.8167   -1.7498 H   0  0  0  0  0  0  0  0  0  0  0  0
   -3.7748    2.0428   -1.8888 H   0  0  0  0  0  0  0  0  0  0  0  0
   -5.7374    1.7109    0.4291 H   0  0  0  0  0  0  0  0  0  0  0  0
   -5.5253    3.1662   -0.5291 H   0  0  0  0  0  0  0  0  0  0  0  0
   -3.4702    3.6928    0.5658 H   0  0  0  0  0  0  0  0  0  0  0  0
   -4.1568    2.7333    1.8567 H   0  0  0  0  0  0  0  0  0  0  0  0
   -2.3628    1.1962    1.4971 H   0  0  0  0  0  0  0  0  0  0  0  0
   -1.8829    2.0856    0.0579 H   0  0  0  0  0  0  0  0  0  0  0  0
  1 26  1  0  0  0  0
  2  1  1  0  0  0  0
  3  2  2  0  0  0  0
  4 27  1  6  0  0  0
  4  2  1  0  0  0  0
  4  9  1  0  0  0  0
  5 28  1  0  0  0  0
  5  4  1  0  0  0  0
  6  5  1  0  0  0  0
  6  7  1  0  0  0  0
  7 12  1  6  0  0  0
  7 10  1  0  0  0  0
  7  8  1  0  0  0  0
  8  9  1  0  0  0  0
  8 33  1  0  0  0  0
  9 34  1  0  0  0  0
  9 35  1  0  0  0  0
 10 11  3  0  0  0  0
 12 13  2  0  0  0  0
 13 36  1  0  0  0  0
 14 13  1  0  0  0  0
 14 37  1  0  0  0  0
 15 14  2  0  0  0  0
 16 15  1  0  0  0  0
 16 17  1  0  0  0  0
 17 39  1  0  0  0  0
 18 19  2  0  0  0  0
 18 15  1  0  0  0  0
 19 12  1  0  0  0  0
 20 18  1  0  0  0  0
 20 21  1  0  0  0  0
 21 42  1  0  0  0  0
 21 25  1  0  0  0  0
 22 21  1  0  0  0  0
 22 23  1  0  0  0  0
 23 45  1  0  0  0  0
 23 24  1  0  0  0  0
 24 48  1  0  0  0  0
 25 24  1  0  0  0  0
 25 49  1  0  0  0  0
 29  5  1  0  0  0  0
 30  6  1  0  0  0  0
 31  6  1  0  0  0  0
 32  8  1  0  0  0  0
 38 17  1  0  0  0  0
 40 17  1  0  0  0  0
 41 19  1  0  0  0  0
 43 22  1  0  0  0  0
 44 22  1  0  0  0  0
 46 23  1  0  0  0  0
 47 24  1  0  0  0  0
 50 25  1  0  0  0  0
M  END
