omegapdb_1xom_19.xyz
 OpenBabel11041815263D

 50 52  0  0  1  0  0  0  0  0999 V2000
    6.1514    1.4579   -0.5225 O   0  0  0  0  0  0  0  0  0  0  0  0
    5.0440    2.2284   -0.6924 C   0  0  0  0  0  0  0  0  0  0  0  0
    5.1598    3.3971   -0.9623 O   0  0  0  0  0  0  0  0  0  0  0  0
    3.7156    1.5234   -0.5217 C   0  0  1  0  0  0  0  0  0  0  0  0
    3.5255    0.4138   -1.5607 C   0  0  0  0  0  0  0  0  0  0  0  0
    2.1669   -0.2564   -1.3928 C   0  0  0  0  0  0  0  0  0  0  0  0
    1.9731   -0.8224    0.0311 C   0  0  2  0  0  0  0  0  0  0  0  0
    2.1817    0.3109    1.0595 C   0  0  0  0  0  0  0  0  0  0  0  0
    3.5406    0.9827    0.9010 C   0  0  0  0  0  0  0  0  0  0  0  0
    3.0248   -1.8158    0.2541 C   0  0  0  0  0  0  0  0  0  0  0  0
    3.9111   -2.5673    0.4168 N   0  0  0  0  0  0  0  0  0  0  0  0
    0.6057   -1.4594    0.1876 C   0  0  0  0  0  0  0  0  0  0  0  0
    0.4375   -2.8019    0.4994 C   0  0  0  0  0  0  0  0  0  0  0  0
   -0.8450   -3.3417    0.6386 C   0  0  0  0  0  0  0  0  0  0  0  0
   -1.9728   -2.5462    0.4686 C   0  0  0  0  0  0  0  0  0  0  0  0
   -3.2544   -2.9698    0.5805 O   0  0  0  0  0  0  0  0  0  0  0  0
   -3.4299   -4.3420    0.8930 C   0  0  0  0  0  0  0  0  0  0  0  0
   -1.8114   -1.1776    0.1508 C   0  0  0  0  0  0  0  0  0  0  0  0
   -0.5308   -0.6534    0.0155 C   0  0  0  0  0  0  0  0  0  0  0  0
   -2.9653   -0.4835   -0.0084 O   0  0  0  0  0  0  0  0  0  0  0  0
   -2.8691    0.9058   -0.3002 C   0  0  0  0  0  0  0  0  0  0  0  0
   -2.5253    1.7919    0.8929 C   0  0  0  0  0  0  0  0  0  0  0  0
   -2.9394    3.1720    0.3856 C   0  0  0  0  0  0  0  0  0  0  0  0
   -4.2373    2.9163   -0.4166 C   0  0  0  0  0  0  0  0  0  0  0  0
   -4.2485    1.4025   -0.7187 C   0  0  0  0  0  0  0  0  0  0  0  0
    5.8855    0.5541   -0.3128 H   0  0  0  0  0  0  0  0  0  0  0  0
    2.9613    2.2931   -0.6946 H   0  0  0  0  0  0  0  0  0  0  0  0
    3.6117    0.8306   -2.5651 H   0  0  0  0  0  0  0  0  0  0  0  0
    4.3092   -0.3424   -1.4629 H   0  0  0  0  0  0  0  0  0  0  0  0
    1.3720    0.4710   -1.5699 H   0  0  0  0  0  0  0  0  0  0  0  0
    2.0385   -1.0625   -2.1163 H   0  0  0  0  0  0  0  0  0  0  0  0
    2.0620   -0.0946    2.0650 H   0  0  0  0  0  0  0  0  0  0  0  0
    1.3881    1.0455    0.9069 H   0  0  0  0  0  0  0  0  0  0  0  0
    4.3248    0.2577    1.1357 H   0  0  0  0  0  0  0  0  0  0  0  0
    3.6378    1.7973    1.6199 H   0  0  0  0  0  0  0  0  0  0  0  0
    1.2977   -3.4421    0.6400 H   0  0  0  0  0  0  0  0  0  0  0  0
   -0.9489   -4.3879    0.8812 H   0  0  0  0  0  0  0  0  0  0  0  0
   -2.9825   -4.5884    1.8572 H   0  0  0  0  0  0  0  0  0  0  0  0
   -4.5017   -4.4997    0.9397 H   0  0  0  0  0  0  0  0  0  0  0  0
   -3.0003   -4.9815    0.1204 H   0  0  0  0  0  0  0  0  0  0  0  0
   -0.4144    0.3926   -0.2222 H   0  0  0  0  0  0  0  0  0  0  0  0
   -2.1491    1.0615   -1.1115 H   0  0  0  0  0  0  0  0  0  0  0  0
   -1.4862    1.7366    1.2109 H   0  0  0  0  0  0  0  0  0  0  0  0
   -3.1547    1.4787    1.7289 H   0  0  0  0  0  0  0  0  0  0  0  0
   -3.0747    3.8941    1.1877 H   0  0  0  0  0  0  0  0  0  0  0  0
   -2.1636    3.5641   -0.2735 H   0  0  0  0  0  0  0  0  0  0  0  0
   -4.2593    3.5111   -1.3270 H   0  0  0  0  0  0  0  0  0  0  0  0
   -5.1131    3.1944    0.1658 H   0  0  0  0  0  0  0  0  0  0  0  0
   -4.9784    0.8824   -0.0989 H   0  0  0  0  0  0  0  0  0  0  0  0
   -4.4706    1.1690   -1.7571 H   0  0  0  0  0  0  0  0  0  0  0  0
  1 26  1  0  0  0  0
  2  1  1  0  0  0  0
  2  4  1  0  0  0  0
  3  2  2  0  0  0  0
  4 27  1  6  0  0  0
  4  9  1  0  0  0  0
  5 29  1  0  0  0  0
  5  6  1  0  0  0  0
  5  4  1  0  0  0  0
  6  7  1  0  0  0  0
  7 12  1  1  0  0  0
  7 10  1  0  0  0  0
  7  8  1  0  0  0  0
  8 32  1  0  0  0  0
  9  8  1  0  0  0  0
  9 34  1  0  0  0  0
  9 35  1  0  0  0  0
 10 11  3  0  0  0  0
 12 13  2  0  0  0  0
 13 14  1  0  0  0  0
 13 36  1  0  0  0  0
 14 37  1  0  0  0  0
 15 16  1  0  0  0  0
 15 14  2  0  0  0  0
 16 17  1  0  0  0  0
 17 39  1  0  0  0  0
 17 38  1  0  0  0  0
 18 15  1  0  0  0  0
 19 18  2  0  0  0  0
 19 12  1  0  0  0  0
 20 18  1  0  0  0  0
 21 20  1  0  0  0  0
 21 22  1  0  0  0  0
 22 43  1  0  0  0  0
 22 44  1  0  0  0  0
 23 22  1  0  0  0  0
 23 45  1  0  0  0  0
 24 48  1  0  0  0  0
 24 23  1  0  0  0  0
 25 24  1  0  0  0  0
 25 21  1  0  0  0  0
 25 49  1  0  0  0  0
 28  5  1  0  0  0  0
 30  6  1  0  0  0  0
 31  6  1  0  0  0  0
 33  8  1  0  0  0  0
 40 17  1  0  0  0  0
 41 19  1  0  0  0  0
 42 21  1  0  0  0  0
 46 23  1  0  0  0  0
 47 24  1  0  0  0  0
 50 25  1  0  0  0  0
M  END
