omegapdb_1gs5_04.xyz
 OpenBabel11041815263D

 24 23  0  0  1  0  0  0  0  0999 V2000
   -0.2016   -1.0458   -0.1848 C   0  0  2  0  0  0  0  0  0  0  0  0
   -0.6362   -1.2723    1.2682 C   0  0  0  0  0  0  0  0  0  0  0  0
    0.1363   -1.4738    2.1758 O   0  0  0  0  0  0  0  0  0  0  0  0
   -1.9615   -1.2377    1.4520 O   0  0  0  0  0  0  0  0  0  0  0  0
    1.2894   -1.3057   -0.3935 C   0  0  0  0  0  0  0  0  0  0  0  0
    2.2238   -0.1067   -0.1741 C   0  0  0  0  0  0  0  0  0  0  0  0
    1.9833    0.5798    1.1391 C   0  0  0  0  0  0  0  0  0  0  0  0
    1.1352    1.4363    1.3099 O   0  0  0  0  0  0  0  0  0  0  0  0
    2.7937    0.1455    2.1112 O   0  0  0  0  0  0  0  0  0  0  0  0
   -0.6084    0.2764   -0.6420 N   0  0  0  0  0  0  0  0  0  0  0  0
   -1.8922    0.5110   -1.0106 C   0  0  0  0  0  0  0  0  0  0  0  0
   -2.7470   -0.3816   -1.0174 O   0  0  0  0  0  0  0  0  0  0  0  0
   -2.2033    1.9150   -1.4471 C   0  0  0  0  0  0  0  0  0  0  0  0
   -0.7698   -1.7572   -0.7866 H   0  0  0  0  0  0  0  0  0  0  0  0
   -2.3984   -1.0785    0.5849 H   0  0  0  0  0  0  0  0  0  0  0  0
    1.4438   -1.6475   -1.4162 H   0  0  0  0  0  0  0  0  0  0  0  0
    1.5752   -2.1132    0.2776 H   0  0  0  0  0  0  0  0  0  0  0  0
    2.0665    0.6300   -0.9595 H   0  0  0  0  0  0  0  0  0  0  0  0
    3.2536   -0.4512   -0.2254 H   0  0  0  0  0  0  0  0  0  0  0  0
    2.4826    0.5632    2.9294 H   0  0  0  0  0  0  0  0  0  0  0  0
   -0.0686    1.0566   -0.2846 H   0  0  0  0  0  0  0  0  0  0  0  0
   -3.1248    2.2344   -0.9688 H   0  0  0  0  0  0  0  0  0  0  0  0
   -1.4026    2.6121   -1.2149 H   0  0  0  0  0  0  0  0  0  0  0  0
   -2.3689    1.9112   -2.5229 H   0  0  0  0  0  0  0  0  0  0  0  0
  1 14  1  6  0  0  0
  1  2  1  0  0  0  0
  2  4  1  0  0  0  0
  2  3  2  0  0  0  0
  5  1  1  0  0  0  0
  5  6  1  0  0  0  0
  5 17  1  0  0  0  0
  6  7  1  0  0  0  0
  7  8  2  0  0  0  0
  7  9  1  0  0  0  0
  9 20  1  0  0  0  0
 10 21  1  0  0  0  0
 10  1  1  0  0  0  0
 11 10  1  0  0  0  0
 12 11  2  0  0  0  0
 13 23  1  0  0  0  0
 13 11  1  0  0  0  0
 13 22  1  0  0  0  0
 15  4  1  0  0  0  0
 16  5  1  0  0  0  0
 18  6  1  0  0  0  0
 19  6  1  0  0  0  0
 24 13  1  0  0  0  0
M  END
