omegapdb_1xom_16.xyz
 OpenBabel11041815263D

 50 52  0  0  1  0  0  0  0  0999 V2000
    6.0584    0.3460    0.5909 O   0  0  0  0  0  0  0  0  0  0  0  0
    5.9466    0.4005   -0.7622 C   0  0  0  0  0  0  0  0  0  0  0  0
    6.8756    0.6960   -1.4780 O   0  0  0  0  0  0  0  0  0  0  0  0
    4.5481    0.0988   -1.2241 C   0  0  1  0  0  0  0  0  0  0  0  0
    3.9069   -1.1076   -0.5088 C   0  0  0  0  0  0  0  0  0  0  0  0
    3.0738   -0.6732    0.6917 C   0  0  0  0  0  0  0  0  0  0  0  0
    1.8637    0.1936    0.2573 C   0  0  2  0  0  0  0  0  0  0  0  0
    2.2134    0.9593   -1.0503 C   0  0  0  0  0  0  0  0  0  0  0  0
    3.6797    1.3629   -1.0502 C   0  0  0  0  0  0  0  0  0  0  0  0
    1.6285    1.1931    1.3028 C   0  0  0  0  0  0  0  0  0  0  0  0
    1.4534    2.0186    2.1184 N   0  0  0  0  0  0  0  0  0  0  0  0
    0.5813   -0.5916    0.0376 C   0  0  0  0  0  0  0  0  0  0  0  0
    0.5740   -1.9561   -0.2229 C   0  0  0  0  0  0  0  0  0  0  0  0
   -0.6288   -2.6183   -0.4956 C   0  0  0  0  0  0  0  0  0  0  0  0
   -1.8354   -1.9266   -0.5057 C   0  0  0  0  0  0  0  0  0  0  0  0
   -3.0515   -2.4756   -0.7454 O   0  0  0  0  0  0  0  0  0  0  0  0
   -3.0633   -3.8689   -1.0047 C   0  0  0  0  0  0  0  0  0  0  0  0
   -1.8378   -0.5379   -0.2393 C   0  0  0  0  0  0  0  0  0  0  0  0
   -0.6346    0.1079    0.0231 C   0  0  0  0  0  0  0  0  0  0  0  0
   -3.0514    0.0590   -0.2636 O   0  0  0  0  0  0  0  0  0  0  0  0
   -3.0971    1.4529    0.0848 C   0  0  0  0  0  0  0  0  0  0  0  0
   -2.8418    1.6576    1.5927 C   0  0  0  0  0  0  0  0  0  0  0  0
   -4.2273    1.9211    2.2192 C   0  0  0  0  0  0  0  0  0  0  0  0
   -5.2248    1.4404    1.1630 C   0  0  0  0  0  0  0  0  0  0  0  0
   -4.5440    1.8706   -0.1337 C   0  0  0  0  0  0  0  0  0  0  0  0
    6.9760    0.5918    0.7844 H   0  0  0  0  0  0  0  0  0  0  0  0
    4.6337   -0.1143   -2.2884 H   0  0  0  0  0  0  0  0  0  0  0  0
    4.6765   -1.8103   -0.1902 H   0  0  0  0  0  0  0  0  0  0  0  0
    3.2762   -1.6346   -1.2252 H   0  0  0  0  0  0  0  0  0  0  0  0
    3.7069   -0.0941    1.3621 H   0  0  0  0  0  0  0  0  0  0  0  0
    2.7146   -1.5298    1.2608 H   0  0  0  0  0  0  0  0  0  0  0  0
    1.5535    1.8215   -1.1459 H   0  0  0  0  0  0  0  0  0  0  0  0
    2.0040    0.2981   -1.8939 H   0  0  0  0  0  0  0  0  0  0  0  0
    3.9161    1.8611   -0.1072 H   0  0  0  0  0  0  0  0  0  0  0  0
    3.8984    2.0688   -1.8504 H   0  0  0  0  0  0  0  0  0  0  0  0
    1.4879   -2.5316   -0.2108 H   0  0  0  0  0  0  0  0  0  0  0  0
   -0.6094   -3.6796   -0.6896 H   0  0  0  0  0  0  0  0  0  0  0  0
   -2.4803   -4.1112   -1.8948 H   0  0  0  0  0  0  0  0  0  0  0  0
   -2.6765   -4.4334   -0.1546 H   0  0  0  0  0  0  0  0  0  0  0  0
   -4.1026   -4.1307   -1.1704 H   0  0  0  0  0  0  0  0  0  0  0  0
   -0.6332    1.1630    0.2544 H   0  0  0  0  0  0  0  0  0  0  0  0
   -2.3996    1.9965   -0.5558 H   0  0  0  0  0  0  0  0  0  0  0  0
   -2.3860    0.7563    2.0000 H   0  0  0  0  0  0  0  0  0  0  0  0
   -2.1453    2.4751    1.7761 H   0  0  0  0  0  0  0  0  0  0  0  0
   -4.3473    1.4273    3.1812 H   0  0  0  0  0  0  0  0  0  0  0  0
   -4.3638    2.9912    2.3810 H   0  0  0  0  0  0  0  0  0  0  0  0
   -5.3070    0.3532    1.1831 H   0  0  0  0  0  0  0  0  0  0  0  0
   -6.2198    1.8627    1.2902 H   0  0  0  0  0  0  0  0  0  0  0  0
   -4.9523    1.4232   -1.0373 H   0  0  0  0  0  0  0  0  0  0  0  0
   -4.5862    2.9577   -0.2297 H   0  0  0  0  0  0  0  0  0  0  0  0
  1 26  1  0  0  0  0
  2  1  1  0  0  0  0
  3  2  2  0  0  0  0
  4 27  1  6  0  0  0
  4  9  1  0  0  0  0
  4  2  1  0  0  0  0
  4  5  1  0  0  0  0
  5 28  1  0  0  0  0
  5  6  1  0  0  0  0
  6 31  1  0  0  0  0
  6 30  1  0  0  0  0
  7 12  1  6  0  0  0
  7  6  1  0  0  0  0
  7 10  1  0  0  0  0
  8  9  1  0  0  0  0
  8  7  1  0  0  0  0
  9 34  1  0  0  0  0
 10 11  3  0  0  0  0
 13 36  1  0  0  0  0
 13 12  2  0  0  0  0
 14 13  1  0  0  0  0
 15 14  2  0  0  0  0
 15 18  1  0  0  0  0
 16 15  1  0  0  0  0
 17 16  1  0  0  0  0
 17 39  1  0  0  0  0
 18 19  2  0  0  0  0
 19 12  1  0  0  0  0
 19 41  1  0  0  0  0
 20 18  1  0  0  0  0
 20 21  1  0  0  0  0
 21 22  1  0  0  0  0
 22 44  1  0  0  0  0
 22 43  1  0  0  0  0
 22 23  1  0  0  0  0
 23 46  1  0  0  0  0
 23 45  1  0  0  0  0
 24 47  1  0  0  0  0
 24 48  1  0  0  0  0
 24 23  1  0  0  0  0
 25 21  1  0  0  0  0
 25 24  1  0  0  0  0
 29  5  1  0  0  0  0
 32  8  1  0  0  0  0
 33  8  1  0  0  0  0
 35  9  1  0  0  0  0
 37 14  1  0  0  0  0
 38 17  1  0  0  0  0
 40 17  1  0  0  0  0
 42 21  1  0  0  0  0
 49 25  1  0  0  0  0
 50 25  1  0  0  0  0
M  END
