omegapdb_1v2k_16.log
 OpenBabel10161801213D
Gaussian 16 # PM6 Opt
 61 65  0  0  0  0  0  0  0  0999 V2000
   -7.3628    3.6383    1.3502 N   0  0  0  0  0  0  0  0  0  0  0  0
   -6.0134    3.8071    1.2631 C   0  0  0  0  0  0  0  0  0  0  0  0
   -5.1738    2.9384    0.5665 C   0  0  0  0  0  0  0  0  0  0  0  0
   -5.7333    1.8182   -0.1018 C   0  0  0  0  0  0  0  0  0  0  0  0
   -7.1372    1.6361   -0.0110 C   0  0  0  0  0  0  0  0  0  0  0  0
   -7.8953    2.5619    0.7115 C   0  0  0  0  0  0  0  0  0  0  0  0
   -4.9455    0.9878   -0.9183 N   0  0  0  0  0  0  0  0  0  0  0  0
   -5.4990   -0.3554   -1.2841 C   0  0  0  0  0  0  0  0  0  0  0  0
   -4.4107   -1.3124   -1.7820 C   0  0  0  0  0  0  0  0  0  0  0  0
   -3.3027   -1.5215   -0.7308 C   0  0  0  0  0  0  0  0  0  0  0  0
   -2.9251   -0.2014   -0.0290 C   0  0  0  0  0  0  0  0  0  0  0  0
   -3.4598    1.0158   -0.7929 C   0  0  0  0  0  0  0  0  0  0  0  0
   -2.0653   -2.0824   -1.4349 C   0  0  0  0  0  0  0  0  0  0  0  0
   -1.7822   -1.8191   -2.5944 O   0  0  0  0  0  0  0  0  0  0  0  0
   -1.2722   -3.0296   -0.7494 N   0  0  0  0  0  0  0  0  0  0  0  0
    0.0118   -3.4297   -1.3805 C   0  0  0  0  0  0  0  0  0  0  0  0
    1.2113   -2.6846   -0.7537 C   0  0  0  0  0  0  0  0  0  0  0  0
    1.1301   -2.5882    0.7346 N   0  0  0  0  0  0  0  0  0  0  0  0
    0.0897   -3.4757    1.3131 C   0  0  0  0  0  0  0  0  0  0  0  0
   -1.3188   -3.2189    0.7262 C   0  0  0  0  0  0  0  0  0  0  0  0
    1.1277   -0.9858    1.4005 S   0  0  0  0  0  0  0  0  0  0  0  0
    0.9287   -1.1606    2.8246 O   0  0  0  0  0  0  0  0  0  0  0  0
    0.1767   -0.1646    0.6637 O   0  0  0  0  0  0  0  0  0  0  0  0
    2.7224   -0.4199    1.0527 C   0  0  0  0  0  0  0  0  0  0  0  0
    2.9156    0.5915    0.1411 C   0  0  0  0  0  0  0  0  0  0  0  0
    4.2313    1.0669   -0.1410 C   0  0  0  0  0  0  0  0  0  0  0  0
    5.3372    0.4834    0.5373 C   0  0  0  0  0  0  0  0  0  0  0  0
    5.1037   -0.5609    1.4860 C   0  0  0  0  0  0  0  0  0  0  0  0
    3.8269   -0.9989    1.7380 C   0  0  0  0  0  0  0  0  0  0  0  0
    6.6583    0.9569    0.2554 C   0  0  0  0  0  0  0  0  0  0  0  0
    6.8231    1.9630   -0.6612 C   0  0  0  0  0  0  0  0  0  0  0  0
    5.7284    2.5622   -1.3496 C   0  0  0  0  0  0  0  0  0  0  0  0
    4.4580    2.1180   -1.0894 C   0  0  0  0  0  0  0  0  0  0  0  0
    8.4059    2.5462   -1.0148 Cl  0  0  0  0  0  0  0  0  0  0  0  0
   -5.6095    4.6824    1.7855 H   0  0  0  0  0  0  0  0  0  0  0  0
   -4.1028    3.1243    0.5326 H   0  0  0  0  0  0  0  0  0  0  0  0
   -7.6364    0.8106   -0.5029 H   0  0  0  0  0  0  0  0  0  0  0  0
   -8.9830    2.4505    0.7948 H   0  0  0  0  0  0  0  0  0  0  0  0
   -6.0318   -0.8119   -0.4188 H   0  0  0  0  0  0  0  0  0  0  0  0
   -6.2498   -0.1922   -2.0925 H   0  0  0  0  0  0  0  0  0  0  0  0
   -4.8650   -2.2834   -2.0548 H   0  0  0  0  0  0  0  0  0  0  0  0
   -3.9607   -0.9229   -2.7252 H   0  0  0  0  0  0  0  0  0  0  0  0
   -3.6796   -2.2448    0.0311 H   0  0  0  0  0  0  0  0  0  0  0  0
   -1.8171   -0.0991    0.0841 H   0  0  0  0  0  0  0  0  0  0  0  0
   -3.3210   -0.2005    1.0044 H   0  0  0  0  0  0  0  0  0  0  0  0
   -3.0435    1.0366   -1.8285 H   0  0  0  0  0  0  0  0  0  0  0  0
   -3.1239    1.9570   -0.3009 H   0  0  0  0  0  0  0  0  0  0  0  0
    0.1263   -4.5301   -1.2696 H   0  0  0  0  0  0  0  0  0  0  0  0
   -0.0358   -3.2171   -2.4779 H   0  0  0  0  0  0  0  0  0  0  0  0
    2.1525   -3.2332   -0.9920 H   0  0  0  0  0  0  0  0  0  0  0  0
    1.2963   -1.6770   -1.2192 H   0  0  0  0  0  0  0  0  0  0  0  0
    0.3989   -4.5311    1.1317 H   0  0  0  0  0  0  0  0  0  0  0  0
    0.0708   -3.3491    2.4236 H   0  0  0  0  0  0  0  0  0  0  0  0
   -1.7739   -2.3332    1.2241 H   0  0  0  0  0  0  0  0  0  0  0  0
   -1.9784   -4.0901    0.9434 H   0  0  0  0  0  0  0  0  0  0  0  0
    2.0640    1.0514   -0.3793 H   0  0  0  0  0  0  0  0  0  0  0  0
    5.9562   -0.9974    2.0066 H   0  0  0  0  0  0  0  0  0  0  0  0
    3.6452   -1.7920    2.4707 H   0  0  0  0  0  0  0  0  0  0  0  0
    7.5085    0.5123    0.7736 H   0  0  0  0  0  0  0  0  0  0  0  0
    5.9202    3.3609   -2.0675 H   0  0  0  0  0  0  0  0  0  0  0  0
    3.5987    2.5581   -1.5995 H   0  0  0  0  0  0  0  0  0  0  0  0
  2  1  1  0  0  0  0
  2 35  1  0  0  0  0
  3  2  2  0  0  0  0
  4  5  2  0  0  0  0
  4  3  1  0  0  0  0
  5  6  1  0  0  0  0
  6 38  1  0  0  0  0
  6  1  2  0  0  0  0
  7 12  1  0  0  0  0
  7  4  1  0  0  0  0
  8  7  1  0  0  0  0
  8 39  1  0  0  0  0
  9  8  1  0  0  0  0
  9 10  1  0  0  0  0
 10 11  1  0  0  0  0
 10 43  1  0  0  0  0
 11 44  1  0  0  0  0
 11 45  1  0  0  0  0
 12 47  1  0  0  0  0
 12 11  1  0  0  0  0
 13 15  1  0  0  0  0
 13 10  1  0  0  0  0
 14 13  2  0  0  0  0
 15 20  1  0  0  0  0
 16 48  1  0  0  0  0
 16 17  1  0  0  0  0
 16 15  1  0  0  0  0
 17 18  1  0  0  0  0
 18 19  1  0  0  0  0
 18 21  1  0  0  0  0
 19 53  1  0  0  0  0
 20 55  1  0  0  0  0
 20 54  1  0  0  0  0
 20 19  1  0  0  0  0
 21 22  2  0  0  0  0
 23 21  2  0  0  0  0
 24 21  1  0  0  0  0
 24 29  2  0  0  0  0
 25 24  1  0  0  0  0
 26 25  2  0  0  0  0
 26 27  1  0  0  0  0
 27 28  2  0  0  0  0
 28 29  1  0  0  0  0
 28 57  1  0  0  0  0
 29 58  1  0  0  0  0
 30 27  1  0  0  0  0
 30 59  1  0  0  0  0
 31 30  2  0  0  0  0
 32 33  2  0  0  0  0
 32 31  1  0  0  0  0
 33 26  1  0  0  0  0
 34 31  1  0  0  0  0
 36  3  1  0  0  0  0
 37  5  1  0  0  0  0
 40  8  1  0  0  0  0
 41  9  1  0  0  0  0
 42  9  1  0  0  0  0
 46 12  1  0  0  0  0
 49 16  1  0  0  0  0
 50 17  1  0  0  0  0
 51 17  1  0  0  0  0
 52 19  1  0  0  0  0
 56 25  1  0  0  0  0
 60 32  1  0  0  0  0
 61 33  1  0  0  0  0
M  END
