omegapdb_1z1r_00.log
 OpenBabel10161801213D
Gaussian 16 # PM6 Opt
 66 68  0  0  1  0  0  0  0  0999 V2000
    0.3169    0.4514    2.0538 C   0  0  2  0  0  0  0  0  0  0  0  0
    0.4868    1.9798    1.8894 C   0  0  0  0  0  0  0  0  0  0  0  0
    1.8350    2.2724    1.2886 C   0  0  0  0  0  0  0  0  0  0  0  0
    2.9972    2.1224    2.0669 C   0  0  0  0  0  0  0  0  0  0  0  0
    4.2540    2.1507    1.4685 C   0  0  0  0  0  0  0  0  0  0  0  0
    4.3328    2.3379    0.0782 C   0  0  0  0  0  0  0  0  0  0  0  0
    3.1956    2.6036   -0.6965 C   0  0  0  0  0  0  0  0  0  0  0  0
    1.9448    2.5730   -0.0776 C   0  0  0  0  0  0  0  0  0  0  0  0
    5.6074    2.2764   -0.4662 O   0  0  0  0  0  0  0  0  0  0  0  0
    5.7685    1.3813   -1.6047 C   0  0  0  0  0  0  0  0  0  0  0  0
    5.6550   -0.0788   -1.1728 C   0  0  0  0  0  0  0  0  0  0  0  0
    4.2249   -0.6272   -1.2432 C   0  0  0  0  0  0  0  0  0  0  0  0
    4.1833   -2.0621   -0.7674 C   0  0  0  0  0  0  0  0  0  0  0  0
    5.1617   -2.7591   -0.5708 O   0  0  0  0  0  0  0  0  0  0  0  0
    2.9227   -2.6699   -0.5682 N   0  0  0  0  0  0  0  0  0  0  0  0
    1.6243   -1.9931   -0.6564 C   0  0  2  0  0  0  0  0  0  0  0  0
    1.1805   -1.5277    0.7612 C   0  0  0  0  0  0  0  0  0  0  0  0
    1.2183   -2.2384    1.7528 O   0  0  0  0  0  0  0  0  0  0  0  0
    0.7167   -0.2232    0.7935 N   0  0  0  0  0  0  0  0  0  0  0  0
    0.5426   -2.9457   -1.2013 C   0  0  0  0  0  0  0  0  0  0  0  0
   -0.7600   -2.2000   -1.4326 C   0  0  0  0  0  0  0  0  0  0  0  0
   -0.8164   -0.9708   -1.5078 O   0  0  0  0  0  0  0  0  0  0  0  0
   -1.8947   -2.9640   -1.6008 N   0  0  0  0  0  0  0  0  0  0  0  0
   -1.1337    0.0704    2.4807 C   0  0  2  0  0  0  0  0  0  0  0  0
   -1.0648   -0.9853    3.4385 O   0  0  0  0  0  0  0  0  0  0  0  0
   -2.0274   -0.3621    1.2992 C   0  0  0  0  0  0  0  0  0  0  0  0
   -3.4609   -0.1599    1.6288 N   0  0  0  0  0  0  0  0  0  0  0  0
   -4.5745   -0.6031    0.3944 S   0  0  0  0  0  0  0  0  0  0  0  0
   -5.8621   -0.7113    1.0439 O   0  0  0  0  0  0  0  0  0  0  0  0
   -4.0333   -1.7738   -0.2971 O   0  0  0  0  0  0  0  0  0  0  0  0
   -4.5416    0.7333   -0.6926 C   0  0  0  0  0  0  0  0  0  0  0  0
   -5.5331    1.7169   -0.6048 C   0  0  0  0  0  0  0  0  0  0  0  0
   -5.5200    2.8017   -1.4859 C   0  0  0  0  0  0  0  0  0  0  0  0
   -4.5149    2.8999   -2.4546 C   0  0  0  0  0  0  0  0  0  0  0  0
   -3.5242    1.9156   -2.5432 C   0  0  0  0  0  0  0  0  0  0  0  0
   -3.5370    0.8305   -1.6622 C   0  0  0  0  0  0  0  0  0  0  0  0
    1.0054    0.0893    2.8737 H   0  0  0  0  0  0  0  0  0  0  0  0
    0.3816    2.4690    2.8804 H   0  0  0  0  0  0  0  0  0  0  0  0
   -0.3301    2.4026    1.2708 H   0  0  0  0  0  0  0  0  0  0  0  0
    2.9155    1.9493    3.1402 H   0  0  0  0  0  0  0  0  0  0  0  0
    5.1662    2.0087    2.0458 H   0  0  0  0  0  0  0  0  0  0  0  0
    3.2885    2.8259   -1.7556 H   0  0  0  0  0  0  0  0  0  0  0  0
    1.0510    2.7680   -0.6691 H   0  0  0  0  0  0  0  0  0  0  0  0
    5.0638    1.6620   -2.4024 H   0  0  0  0  0  0  0  0  0  0  0  0
    6.8022    1.6417   -1.9091 H   0  0  0  0  0  0  0  0  0  0  0  0
    6.0447   -0.1839   -0.1345 H   0  0  0  0  0  0  0  0  0  0  0  0
    6.3277   -0.7133   -1.7889 H   0  0  0  0  0  0  0  0  0  0  0  0
    3.5534    0.0054   -0.6209 H   0  0  0  0  0  0  0  0  0  0  0  0
    3.8398   -0.5663   -2.2820 H   0  0  0  0  0  0  0  0  0  0  0  0
    2.9236   -3.5800   -0.0941 H   0  0  0  0  0  0  0  0  0  0  0  0
    1.6978   -1.1132   -1.3560 H   0  0  0  0  0  0  0  0  0  0  0  0
    0.5170    0.2758   -0.0798 H   0  0  0  0  0  0  0  0  0  0  0  0
    0.8899   -3.3961   -2.1588 H   0  0  0  0  0  0  0  0  0  0  0  0
    0.4036   -3.8041   -0.5089 H   0  0  0  0  0  0  0  0  0  0  0  0
   -1.9178   -3.9506   -1.4002 H   0  0  0  0  0  0  0  0  0  0  0  0
   -2.8194   -2.5051   -1.5747 H   0  0  0  0  0  0  0  0  0  0  0  0
   -1.6063    0.8945    3.0682 H   0  0  0  0  0  0  0  0  0  0  0  0
   -0.4894   -1.7290    3.1125 H   0  0  0  0  0  0  0  0  0  0  0  0
   -1.7883    0.2420    0.3905 H   0  0  0  0  0  0  0  0  0  0  0  0
   -1.8052   -1.4260    1.0436 H   0  0  0  0  0  0  0  0  0  0  0  0
   -3.6790   -0.4630    2.5919 H   0  0  0  0  0  0  0  0  0  0  0  0
   -6.3251    1.6351    0.1490 H   0  0  0  0  0  0  0  0  0  0  0  0
   -6.2922    3.5669   -1.4191 H   0  0  0  0  0  0  0  0  0  0  0  0
   -4.5050    3.7456   -3.1438 H   0  0  0  0  0  0  0  0  0  0  0  0
   -2.7440    1.9899   -3.3000 H   0  0  0  0  0  0  0  0  0  0  0  0
   -2.7534    0.0599   -1.7434 H   0  0  0  0  0  0  0  0  0  0  0  0
  1 24  1  0  0  0  0
  1 37  1  1  0  0  0
  2  1  1  0  0  0  0
  2 38  1  0  0  0  0
  3  2  1  0  0  0  0
  3  4  2  0  0  0  0
  4 40  1  0  0  0  0
  5 41  1  0  0  0  0
  5  4  1  0  0  0  0
  6  5  2  0  0  0  0
  7  8  2  0  0  0  0
  7  6  1  0  0  0  0
  8  3  1  0  0  0  0
  9  6  1  0  0  0  0
 10 11  1  0  0  0  0
 10  9  1  0  0  0  0
 11 46  1  0  0  0  0
 12 11  1  0  0  0  0
 12 13  1  0  0  0  0
 12 48  1  0  0  0  0
 13 14  2  0  0  0  0
 13 15  1  0  0  0  0
 15 50  1  0  0  0  0
 16 51  1  6  0  0  0
 16 15  1  0  0  0  0
 16 17  1  0  0  0  0
 17 19  1  0  0  0  0
 17 18  2  0  0  0  0
 19  1  1  0  0  0  0
 20 16  1  0  0  0  0
 20 54  1  0  0  0  0
 21 20  1  0  0  0  0
 22 21  2  0  0  0  0
 23 56  1  0  0  0  0
 23 21  1  0  0  0  0
 23 55  1  0  0  0  0
 24 57  1  1  0  0  0
 24 25  1  0  0  0  0
 26 27  1  0  0  0  0
 26 24  1  0  0  0  0
 27 61  1  0  0  0  0
 28 29  2  0  0  0  0
 28 27  1  0  0  0  0
 30 28  2  0  0  0  0
 31 32  1  0  0  0  0
 31 28  1  0  0  0  0
 32 62  1  0  0  0  0
 33 63  1  0  0  0  0
 33 32  2  0  0  0  0
 34 33  1  0  0  0  0
 35 34  2  0  0  0  0
 35 36  1  0  0  0  0
 36 31  2  0  0  0  0
 39  2  1  0  0  0  0
 42  7  1  0  0  0  0
 43  8  1  0  0  0  0
 44 10  1  0  0  0  0
 45 10  1  0  0  0  0
 47 11  1  0  0  0  0
 49 12  1  0  0  0  0
 52 19  1  0  0  0  0
 53 20  1  0  0  0  0
 58 25  1  0  0  0  0
 59 26  1  0  0  0  0
 60 26  1  0  0  0  0
 64 34  1  0  0  0  0
 65 35  1  0  0  0  0
 66 36  1  0  0  0  0
M  END
