omegapdb_1m5f_09.log
 OpenBabel10161801213D
Gaussian 16 # PM6 Opt
 25 25  0  0  1  0  0  0  0  0999 V2000
   -2.3841   -2.8479   -0.1333 O   0  0  0  0  0  0  0  0  0  0  0  0
   -1.3550   -1.9749    0.0842 C   0  0  0  0  0  0  0  0  0  0  0  0
   -0.2665   -2.4390    0.3150 O   0  0  0  0  0  0  0  0  0  0  0  0
   -1.6778   -0.5251    0.0082 C   0  0  0  0  0  0  0  0  0  0  0  0
   -2.8781   -0.0052    0.3103 N   0  0  0  0  0  0  0  0  0  0  0  0
   -2.8073    1.3557    0.1801 O   0  0  0  0  0  0  0  0  0  0  0  0
   -1.4935    1.6931   -0.2249 C   0  0  0  0  0  0  0  0  0  0  0  0
   -0.7541    0.5351   -0.3531 C   0  0  0  0  0  0  0  0  0  0  0  0
    0.6581    0.3935   -0.7731 C   0  0  0  0  0  0  0  0  0  0  0  0
    1.5777    0.0408    0.4159 C   0  0  2  0  0  0  0  0  0  0  0  0
    1.5976    1.1807    1.3784 N   0  0  0  0  0  0  0  0  0  0  0  0
    3.0170   -0.1911   -0.0319 C   0  0  0  0  0  0  0  0  0  0  0  0
    4.0126   -0.2341    0.6497 O   0  0  0  0  0  0  0  0  0  0  0  0
    3.0984   -0.4107   -1.3853 O   0  0  0  0  0  0  0  0  0  0  0  0
   -1.2384    3.1229   -0.3891 C   0  0  0  0  0  0  0  0  0  0  0  0
   -3.2777   -2.4316   -0.2690 H   0  0  0  0  0  0  0  0  0  0  0  0
    0.7563   -0.3991   -1.5524 H   0  0  0  0  0  0  0  0  0  0  0  0
    1.0197    1.3308   -1.2537 H   0  0  0  0  0  0  0  0  0  0  0  0
    1.2230   -0.9362    0.8693 H   0  0  0  0  0  0  0  0  0  0  0  0
    2.3417    1.0604    2.0678 H   0  0  0  0  0  0  0  0  0  0  0  0
    0.7163    1.2237    1.8838 H   0  0  0  0  0  0  0  0  0  0  0  0
    4.0304   -0.5990   -1.6849 H   0  0  0  0  0  0  0  0  0  0  0  0
   -1.1832    3.4086   -1.4543 H   0  0  0  0  0  0  0  0  0  0  0  0
   -2.0209    3.7475    0.0737 H   0  0  0  0  0  0  0  0  0  0  0  0
   -0.2717    3.4080    0.0714 H   0  0  0  0  0  0  0  0  0  0  0  0
  1  2  1  0  0  0  0
  2  3  2  0  0  0  0
  4  2  1  0  0  0  0
  4  5  2  0  0  0  0
  6  5  1  0  0  0  0
  7  6  1  0  0  0  0
  8  7  2  0  0  0  0
  8  4  1  0  0  0  0
  9  8  1  0  0  0  0
  9 10  1  0  0  0  0
 10 19  1  1  0  0  0
 10 11  1  0  0  0  0
 11 21  1  0  0  0  0
 11 20  1  0  0  0  0
 12 10  1  0  0  0  0
 12 13  2  0  0  0  0
 14 12  1  0  0  0  0
 15  7  1  0  0  0  0
 15 25  1  0  0  0  0
 15 24  1  0  0  0  0
 16  1  1  0  0  0  0
 17  9  1  0  0  0  0
 18  9  1  0  0  0  0
 22 14  1  0  0  0  0
 23 15  1  0  0  0  0
M  END
