omegapdb_1qxw_07.log
 OpenBabel10161801213D
Gaussian 16 # PM6 Opt
 36 36  0  0  1  0  0  0  0  0999 V2000
   -4.3421   -1.2352    0.5760 C   0  0  0  0  0  0  0  0  0  0  0  0
   -3.9267   -1.5473   -0.8499 C   0  0  0  0  0  0  0  0  0  0  0  0
   -3.1091   -0.5666   -0.0099 C   0  0  0  0  0  0  0  0  0  0  0  0
   -1.8013   -0.9247    0.5447 N   0  0  0  0  0  0  0  0  0  0  0  0
   -0.6740   -0.4884   -0.3285 C   0  0  0  0  0  0  0  0  0  0  0  0
   -0.3388    0.9924   -0.0203 C   0  0  0  0  0  0  0  0  0  0  0  0
    1.0845    1.4551   -0.4697 C   0  0  1  0  0  0  0  0  0  0  0  0
    1.1180    2.9361   -0.2991 N   0  0  0  0  0  0  0  0  0  0  0  0
    2.1980    0.7313    0.3173 C   0  0  0  0  0  0  0  0  0  0  0  0
    2.6601   -0.5631   -0.3594 C   0  0  0  0  0  0  0  0  0  0  0  0
    3.7808   -1.2447    0.4378 C   0  0  0  0  0  0  0  0  0  0  0  0
    4.2378   -2.5408   -0.2271 C   0  0  0  0  0  0  0  0  0  0  0  0
   -0.4272    1.3214    1.3554 O   0  0  0  0  0  0  0  0  0  0  0  0
   -1.3512    1.7295   -0.6983 O   0  0  0  0  0  0  0  0  0  0  0  0
   -5.2311   -0.6357    0.7588 H   0  0  0  0  0  0  0  0  0  0  0  0
   -4.2401   -1.9981    1.3438 H   0  0  0  0  0  0  0  0  0  0  0  0
   -3.5329   -2.5299   -1.0882 H   0  0  0  0  0  0  0  0  0  0  0  0
   -4.5225   -1.1707   -1.6772 H   0  0  0  0  0  0  0  0  0  0  0  0
   -3.1481    0.5092   -0.2709 H   0  0  0  0  0  0  0  0  0  0  0  0
   -1.7316   -1.9298    0.7307 H   0  0  0  0  0  0  0  0  0  0  0  0
   -0.8935   -0.5798   -1.4159 H   0  0  0  0  0  0  0  0  0  0  0  0
    0.2233   -1.1198   -0.1165 H   0  0  0  0  0  0  0  0  0  0  0  0
    1.1809    1.2445   -1.5672 H   0  0  0  0  0  0  0  0  0  0  0  0
    1.0191    3.1803    0.6871 H   0  0  0  0  0  0  0  0  0  0  0  0
    2.0026    3.3156   -0.6219 H   0  0  0  0  0  0  0  0  0  0  0  0
    1.8404    0.5217    1.3488 H   0  0  0  0  0  0  0  0  0  0  0  0
    3.0672    1.4052    0.4453 H   0  0  0  0  0  0  0  0  0  0  0  0
    3.0066   -0.3539   -1.3897 H   0  0  0  0  0  0  0  0  0  0  0  0
    1.7992   -1.2611   -0.4616 H   0  0  0  0  0  0  0  0  0  0  0  0
    4.6417   -0.5555    0.5432 H   0  0  0  0  0  0  0  0  0  0  0  0
    3.4356   -1.4547    1.4696 H   0  0  0  0  0  0  0  0  0  0  0  0
    4.6202   -2.3642   -1.2390 H   0  0  0  0  0  0  0  0  0  0  0  0
    5.0415   -3.0169    0.3467 H   0  0  0  0  0  0  0  0  0  0  0  0
    3.4206   -3.2663   -0.3070 H   0  0  0  0  0  0  0  0  0  0  0  0
   -1.2344    0.9139    1.7659 H   0  0  0  0  0  0  0  0  0  0  0  0
   -1.1784    2.7025   -0.6573 H   0  0  0  0  0  0  0  0  0  0  0  0
  1 15  1  0  0  0  0
  1 16  1  0  0  0  0
  2  3  1  0  0  0  0
  2  1  1  0  0  0  0
  3  4  1  0  0  0  0
  3  1  1  0  0  0  0
  4 20  1  0  0  0  0
  5 22  1  0  0  0  0
  5  6  1  0  0  0  0
  5  4  1  0  0  0  0
  6 13  1  0  0  0  0
  7 23  1  6  0  0  0
  7  8  1  0  0  0  0
  7  6  1  0  0  0  0
  7  9  1  0  0  0  0
  8 24  1  0  0  0  0
  9 27  1  0  0  0  0
  9 26  1  0  0  0  0
 10  9  1  0  0  0  0
 10 11  1  0  0  0  0
 11 30  1  0  0  0  0
 11 31  1  0  0  0  0
 12 33  1  0  0  0  0
 12 11  1  0  0  0  0
 13 35  1  0  0  0  0
 14 36  1  0  0  0  0
 14  6  1  0  0  0  0
 17  2  1  0  0  0  0
 18  2  1  0  0  0  0
 19  3  1  0  0  0  0
 21  5  1  0  0  0  0
 25  8  1  0  0  0  0
 28 10  1  0  0  0  0
 29 10  1  0  0  0  0
 32 12  1  0  0  0  0
 34 12  1  0  0  0  0
M  END
