omegapdb_1qxw_28.log
 OpenBabel10161801213D
Gaussian 16 # PM6 Opt
 36 36  0  0  1  0  0  0  0  0999 V2000
    4.0414   -2.0708   -0.4203 C   0  0  0  0  0  0  0  0  0  0  0  0
    4.6056   -0.6663   -0.3330 C   0  0  0  0  0  0  0  0  0  0  0  0
    3.3300   -1.0297    0.4299 C   0  0  0  0  0  0  0  0  0  0  0  0
    2.0063   -0.5651    0.0097 N   0  0  0  0  0  0  0  0  0  0  0  0
    1.7474    0.8345    0.4551 C   0  0  0  0  0  0  0  0  0  0  0  0
    0.3515    1.2814   -0.0309 C   0  0  0  0  0  0  0  0  0  0  0  0
   -0.8283    0.2663    0.1498 C   0  0  1  0  0  0  0  0  0  0  0  0
   -0.9297   -0.2018    1.5499 N   0  0  0  0  0  0  0  0  0  0  0  0
   -2.1567    0.8986   -0.3162 C   0  0  0  0  0  0  0  0  0  0  0  0
   -3.1689   -0.1410   -0.8182 C   0  0  0  0  0  0  0  0  0  0  0  0
   -3.8036   -0.9521    0.3190 C   0  0  0  0  0  0  0  0  0  0  0  0
   -4.8347   -1.9490   -0.2049 C   0  0  0  0  0  0  0  0  0  0  0  0
    0.1573    2.5081    0.6758 O   0  0  0  0  0  0  0  0  0  0  0  0
    0.3631    1.6116   -1.4157 O   0  0  0  0  0  0  0  0  0  0  0  0
    4.5580   -2.8925    0.0716 H   0  0  0  0  0  0  0  0  0  0  0  0
    3.5969   -2.4148   -1.3521 H   0  0  0  0  0  0  0  0  0  0  0  0
    5.5267   -0.4897    0.2158 H   0  0  0  0  0  0  0  0  0  0  0  0
    4.5566   -0.0174   -1.2025 H   0  0  0  0  0  0  0  0  0  0  0  0
    3.3863   -1.1169    1.5261 H   0  0  0  0  0  0  0  0  0  0  0  0
    1.8963   -0.6260   -1.0123 H   0  0  0  0  0  0  0  0  0  0  0  0
    2.5104    1.5659    0.1089 H   0  0  0  0  0  0  0  0  0  0  0  0
    1.7787    0.8776    1.5683 H   0  0  0  0  0  0  0  0  0  0  0  0
   -0.5988   -0.6230   -0.5009 H   0  0  0  0  0  0  0  0  0  0  0  0
   -0.9713    0.5770    2.2004 H   0  0  0  0  0  0  0  0  0  0  0  0
   -0.1263   -0.7778    1.7958 H   0  0  0  0  0  0  0  0  0  0  0  0
   -1.9435    1.6053   -1.1472 H   0  0  0  0  0  0  0  0  0  0  0  0
   -2.6097    1.4910    0.5013 H   0  0  0  0  0  0  0  0  0  0  0  0
   -3.9621    0.3792   -1.3907 H   0  0  0  0  0  0  0  0  0  0  0  0
   -2.6812   -0.8256   -1.5392 H   0  0  0  0  0  0  0  0  0  0  0  0
   -4.2738   -0.2706    1.0530 H   0  0  0  0  0  0  0  0  0  0  0  0
   -3.0093   -1.4851    0.8836 H   0  0  0  0  0  0  0  0  0  0  0  0
   -5.6529   -1.4475   -0.7326 H   0  0  0  0  0  0  0  0  0  0  0  0
   -4.3842   -2.6658   -0.9004 H   0  0  0  0  0  0  0  0  0  0  0  0
   -5.2764   -2.5245    0.6163 H   0  0  0  0  0  0  0  0  0  0  0  0
   -0.7067    2.9176    0.4660 H   0  0  0  0  0  0  0  0  0  0  0  0
    0.9846    2.3421   -1.6094 H   0  0  0  0  0  0  0  0  0  0  0  0
  1  2  1  0  0  0  0
  1 15  1  0  0  0  0
  1  3  1  0  0  0  0
  2 17  1  0  0  0  0
  2  3  1  0  0  0  0
  3 19  1  0  0  0  0
  4  3  1  0  0  0  0
  4  5  1  0  0  0  0
  5 22  1  0  0  0  0
  6  7  1  0  0  0  0
  6  5  1  0  0  0  0
  6 13  1  0  0  0  0
  7 23  1  6  0  0  0
  7  8  1  0  0  0  0
  8 25  1  0  0  0  0
  8 24  1  0  0  0  0
  9  7  1  0  0  0  0
  9 27  1  0  0  0  0
 10  9  1  0  0  0  0
 10 11  1  0  0  0  0
 11 31  1  0  0  0  0
 11 30  1  0  0  0  0
 12 11  1  0  0  0  0
 12 34  1  0  0  0  0
 14  6  1  0  0  0  0
 16  1  1  0  0  0  0
 18  2  1  0  0  0  0
 20  4  1  0  0  0  0
 21  5  1  0  0  0  0
 26  9  1  0  0  0  0
 28 10  1  0  0  0  0
 29 10  1  0  0  0  0
 32 12  1  0  0  0  0
 33 12  1  0  0  0  0
 35 13  1  0  0  0  0
 36 14  1  0  0  0  0
M  END
