omegapdb_1m5f_05.log
 OpenBabel10161801213D
Gaussian 16 # PM6 Opt
 25 25  0  0  1  0  0  0  0  0999 V2000
   -2.5034   -2.7496   -0.2556 O   0  0  0  0  0  0  0  0  0  0  0  0
   -1.4251   -1.9424   -0.0293 C   0  0  0  0  0  0  0  0  0  0  0  0
   -0.3543   -2.4731    0.1261 O   0  0  0  0  0  0  0  0  0  0  0  0
   -1.6832   -0.4756   -0.0032 C   0  0  0  0  0  0  0  0  0  0  0  0
   -2.8622    0.0571    0.3554 N   0  0  0  0  0  0  0  0  0  0  0  0
   -2.7659    1.4191    0.2861 O   0  0  0  0  0  0  0  0  0  0  0  0
   -1.4574    1.7469   -0.1408 C   0  0  0  0  0  0  0  0  0  0  0  0
   -0.7422    0.5815   -0.3322 C   0  0  0  0  0  0  0  0  0  0  0  0
    0.6517    0.4412   -0.8065 C   0  0  0  0  0  0  0  0  0  0  0  0
    1.5911   -0.1777    0.2494 C   0  0  2  0  0  0  0  0  0  0  0  0
    1.5885    0.4849    1.5751 N   0  0  0  0  0  0  0  0  0  0  0  0
    3.0330   -0.1466   -0.2854 C   0  0  0  0  0  0  0  0  0  0  0  0
    3.3453   -0.0914   -1.4488 O   0  0  0  0  0  0  0  0  0  0  0  0
    4.0322   -0.2191    0.6421 O   0  0  0  0  0  0  0  0  0  0  0  0
   -1.2017    3.1806   -0.2774 C   0  0  0  0  0  0  0  0  0  0  0  0
   -3.3818   -2.2877   -0.3316 H   0  0  0  0  0  0  0  0  0  0  0  0
    1.0509    1.4230   -1.1454 H   0  0  0  0  0  0  0  0  0  0  0  0
    0.6840   -0.1973   -1.7243 H   0  0  0  0  0  0  0  0  0  0  0  0
    1.3146   -1.2708    0.3874 H   0  0  0  0  0  0  0  0  0  0  0  0
    0.8043    0.1600    2.1367 H   0  0  0  0  0  0  0  0  0  0  0  0
    1.4975    1.4935    1.4840 H   0  0  0  0  0  0  0  0  0  0  0  0
    3.7088   -0.2019    1.5922 H   0  0  0  0  0  0  0  0  0  0  0  0
   -0.9562    3.4510   -1.3208 H   0  0  0  0  0  0  0  0  0  0  0  0
   -0.3576    3.5120    0.3508 H   0  0  0  0  0  0  0  0  0  0  0  0
   -2.0775    3.7894    0.0115 H   0  0  0  0  0  0  0  0  0  0  0  0
  1  2  1  0  0  0  0
  2  4  1  0  0  0  0
  2  3  2  0  0  0  0
  4  5  2  0  0  0  0
  6  5  1  0  0  0  0
  7  6  1  0  0  0  0
  8  7  2  0  0  0  0
  8  4  1  0  0  0  0
  9  8  1  0  0  0  0
  9 10  1  0  0  0  0
 10 19  1  1  0  0  0
 10 11  1  0  0  0  0
 11 20  1  0  0  0  0
 12 10  1  0  0  0  0
 12 14  1  0  0  0  0
 13 12  2  0  0  0  0
 14 22  1  0  0  0  0
 15  7  1  0  0  0  0
 15 25  1  0  0  0  0
 15 24  1  0  0  0  0
 16  1  1  0  0  0  0
 17  9  1  0  0  0  0
 18  9  1  0  0  0  0
 21 11  1  0  0  0  0
 23 15  1  0  0  0  0
M  END
