omegapdb_1m5f_10.log
 OpenBabel10161801213D
Gaussian 16 # PM6 Opt
 25 25  0  0  1  0  0  0  0  0999 V2000
   -2.2521   -2.9131    0.0027 O   0  0  0  0  0  0  0  0  0  0  0  0
   -1.2549   -1.9874    0.1493 C   0  0  0  0  0  0  0  0  0  0  0  0
   -0.1421   -2.3970    0.3657 O   0  0  0  0  0  0  0  0  0  0  0  0
   -1.6446   -0.5585    0.0190 C   0  0  0  0  0  0  0  0  0  0  0  0
   -2.8679   -0.0880    0.3107 N   0  0  0  0  0  0  0  0  0  0  0  0
   -2.8619    1.2700    0.1431 O   0  0  0  0  0  0  0  0  0  0  0  0
   -1.5654    1.6584   -0.2734 C   0  0  0  0  0  0  0  0  0  0  0  0
   -0.7738    0.5338   -0.3793 C   0  0  0  0  0  0  0  0  0  0  0  0
    0.6452    0.4371   -0.7926 C   0  0  0  0  0  0  0  0  0  0  0  0
    1.5645    0.1817    0.4218 C   0  0  2  0  0  0  0  0  0  0  0  0
    1.5488    1.3348    1.3435 N   0  0  0  0  0  0  0  0  0  0  0  0
    2.9888   -0.1419   -0.0506 C   0  0  0  0  0  0  0  0  0  0  0  0
    4.0314    0.2612    0.4101 O   0  0  0  0  0  0  0  0  0  0  0  0
    2.9883   -0.9989   -1.1177 O   0  0  0  0  0  0  0  0  0  0  0  0
   -1.3882    3.0976   -0.4646 C   0  0  0  0  0  0  0  0  0  0  0  0
   -3.1670   -2.5417   -0.1160 H   0  0  0  0  0  0  0  0  0  0  0  0
    0.7750   -0.4039   -1.5183 H   0  0  0  0  0  0  0  0  0  0  0  0
    0.9575    1.3554   -1.3319 H   0  0  0  0  0  0  0  0  0  0  0  0
    1.1828   -0.7373    0.9706 H   0  0  0  0  0  0  0  0  0  0  0  0
    2.0031    2.1477    0.9358 H   0  0  0  0  0  0  0  0  0  0  0  0
    2.0383    1.1174    2.2102 H   0  0  0  0  0  0  0  0  0  0  0  0
    3.9064   -1.2611   -1.4043 H   0  0  0  0  0  0  0  0  0  0  0  0
   -1.0837    3.3416   -1.4957 H   0  0  0  0  0  0  0  0  0  0  0  0
   -0.6061    3.4879    0.2142 H   0  0  0  0  0  0  0  0  0  0  0  0
   -2.3115    3.6639   -0.2525 H   0  0  0  0  0  0  0  0  0  0  0  0
  1  2  1  0  0  0  0
  2  3  2  0  0  0  0
  4  2  1  0  0  0  0
  4  5  2  0  0  0  0
  6  5  1  0  0  0  0
  7  6  1  0  0  0  0
  8  7  2  0  0  0  0
  8  4  1  0  0  0  0
  9  8  1  0  0  0  0
  9 10  1  0  0  0  0
 10 19  1  1  0  0  0
 10 11  1  0  0  0  0
 11 21  1  0  0  0  0
 12 13  2  0  0  0  0
 12 10  1  0  0  0  0
 14 12  1  0  0  0  0
 15  7  1  0  0  0  0
 15 25  1  0  0  0  0
 15 24  1  0  0  0  0
 16  1  1  0  0  0  0
 17  9  1  0  0  0  0
 18  9  1  0  0  0  0
 20 11  1  0  0  0  0
 22 14  1  0  0  0  0
 23 15  1  0  0  0  0
M  END
