omegapdb_1z1r_30.log
 OpenBabel10161801213D
Gaussian 16 # PM6 Opt
 66 68  0  0  1  0  0  0  0  0999 V2000
    0.4421   -1.9171    0.1220 C   0  0  2  0  0  0  0  0  0  0  0  0
   -0.6882   -2.9634    0.2754 C   0  0  0  0  0  0  0  0  0  0  0  0
   -2.0805   -2.4412    0.0880 C   0  0  0  0  0  0  0  0  0  0  0  0
   -2.8762   -2.0991    1.1936 C   0  0  0  0  0  0  0  0  0  0  0  0
   -4.1497   -1.5619    1.0078 C   0  0  0  0  0  0  0  0  0  0  0  0
   -4.6147   -1.3742   -0.3019 C   0  0  0  0  0  0  0  0  0  0  0  0
   -3.8629   -1.7657   -1.4198 C   0  0  0  0  0  0  0  0  0  0  0  0
   -2.5972   -2.3079   -1.2122 C   0  0  0  0  0  0  0  0  0  0  0  0
   -5.8813   -0.8202   -0.4378 O   0  0  0  0  0  0  0  0  0  0  0  0
   -5.9480    0.3730   -1.2686 C   0  0  0  0  0  0  0  0  0  0  0  0
   -5.4715    1.5973   -0.4903 C   0  0  0  0  0  0  0  0  0  0  0  0
   -3.9523    1.6659   -0.2772 C   0  0  0  0  0  0  0  0  0  0  0  0
   -3.6259    1.6810    1.2007 C   0  0  0  0  0  0  0  0  0  0  0  0
   -4.3980    2.0777    2.0619 O   0  0  0  0  0  0  0  0  0  0  0  0
   -2.3660    1.2608    1.6472 N   0  0  0  0  0  0  0  0  0  0  0  0
   -1.2335    0.7781    0.8401 C   0  0  2  0  0  0  0  0  0  0  0  0
   -0.3350   -0.0533    1.7845 C   0  0  0  0  0  0  0  0  0  0  0  0
   -0.2836    0.2093    2.9780 O   0  0  0  0  0  0  0  0  0  0  0  0
    0.5481   -1.0128    1.2876 N   0  0  0  0  0  0  0  0  0  0  0  0
   -0.3789    1.9630    0.3330 C   0  0  0  0  0  0  0  0  0  0  0  0
   -0.8168    2.3791   -1.0451 C   0  0  0  0  0  0  0  0  0  0  0  0
   -1.0498    1.5782   -1.9454 O   0  0  0  0  0  0  0  0  0  0  0  0
   -0.9463    3.7400   -1.2905 N   0  0  0  0  0  0  0  0  0  0  0  0
    0.3756   -1.1709   -1.2349 C   0  0  2  0  0  0  0  0  0  0  0  0
    0.4376   -2.2617   -2.1817 O   0  0  0  0  0  0  0  0  0  0  0  0
    1.5320   -0.1944   -1.5426 C   0  0  0  0  0  0  0  0  0  0  0  0
    2.8888   -0.6439   -1.1609 N   0  0  0  0  0  0  0  0  0  0  0  0
    3.4613   -0.0868    0.3669 S   0  0  0  0  0  0  0  0  0  0  0  0
    2.7790    1.1795    0.5982 O   0  0  0  0  0  0  0  0  0  0  0  0
    3.2996   -1.1778    1.3181 O   0  0  0  0  0  0  0  0  0  0  0  0
    5.1421    0.1674    0.0926 C   0  0  0  0  0  0  0  0  0  0  0  0
    5.5697    1.1900   -0.7609 C   0  0  0  0  0  0  0  0  0  0  0  0
    6.9363    1.3967   -0.9713 C   0  0  0  0  0  0  0  0  0  0  0  0
    7.8723    0.5822   -0.3245 C   0  0  0  0  0  0  0  0  0  0  0  0
    7.4451   -0.4384    0.5328 C   0  0  0  0  0  0  0  0  0  0  0  0
    6.0793   -0.6451    0.7420 C   0  0  0  0  0  0  0  0  0  0  0  0
    1.4089   -2.5103    0.1218 H   0  0  0  0  0  0  0  0  0  0  0  0
   -0.5883   -3.4550    1.2659 H   0  0  0  0  0  0  0  0  0  0  0  0
   -0.4937   -3.7679   -0.4733 H   0  0  0  0  0  0  0  0  0  0  0  0
   -2.4938   -2.2333    2.2064 H   0  0  0  0  0  0  0  0  0  0  0  0
   -4.7757   -1.2706    1.8511 H   0  0  0  0  0  0  0  0  0  0  0  0
   -4.2666   -1.6551   -2.4222 H   0  0  0  0  0  0  0  0  0  0  0  0
   -1.9944   -2.6270   -2.0651 H   0  0  0  0  0  0  0  0  0  0  0  0
   -5.3968    0.2161   -2.2093 H   0  0  0  0  0  0  0  0  0  0  0  0
   -7.0357    0.4183   -1.4735 H   0  0  0  0  0  0  0  0  0  0  0  0
   -5.9872    1.6105    0.5030 H   0  0  0  0  0  0  0  0  0  0  0  0
   -5.8198    2.5142   -1.0040 H   0  0  0  0  0  0  0  0  0  0  0  0
   -3.4323    0.8375   -0.8043 H   0  0  0  0  0  0  0  0  0  0  0  0
   -3.5458    2.5910   -0.7370 H   0  0  0  0  0  0  0  0  0  0  0  0
   -2.1857    1.3327    2.6645 H   0  0  0  0  0  0  0  0  0  0  0  0
   -1.5994    0.1579   -0.0287 H   0  0  0  0  0  0  0  0  0  0  0  0
    1.2395   -1.3510    1.9932 H   0  0  0  0  0  0  0  0  0  0  0  0
   -0.3925    2.7870    1.0766 H   0  0  0  0  0  0  0  0  0  0  0  0
    0.7168    1.6804    0.2914 H   0  0  0  0  0  0  0  0  0  0  0  0
   -1.1969    4.0655   -2.2123 H   0  0  0  0  0  0  0  0  0  0  0  0
   -0.7541    4.4463   -0.6018 H   0  0  0  0  0  0  0  0  0  0  0  0
   -0.5982   -0.6295   -1.3666 H   0  0  0  0  0  0  0  0  0  0  0  0
    0.2736   -1.9306   -3.0875 H   0  0  0  0  0  0  0  0  0  0  0  0
    1.5408   -0.0007   -2.6438 H   0  0  0  0  0  0  0  0  0  0  0  0
    1.3131    0.7995   -1.0717 H   0  0  0  0  0  0  0  0  0  0  0  0
    3.0347   -1.6330   -1.4077 H   0  0  0  0  0  0  0  0  0  0  0  0
    4.8405    1.8324   -1.2636 H   0  0  0  0  0  0  0  0  0  0  0  0
    7.2710    2.1923   -1.6359 H   0  0  0  0  0  0  0  0  0  0  0  0
    8.9392    0.7444   -0.4875 H   0  0  0  0  0  0  0  0  0  0  0  0
    8.1755   -1.0690    1.0389 H   0  0  0  0  0  0  0  0  0  0  0  0
    5.7426   -1.4406    1.4187 H   0  0  0  0  0  0  0  0  0  0  0  0
  1 37  1  6  0  0  0
  1  2  1  0  0  0  0
  1 19  1  0  0  0  0
  2 38  1  0  0  0  0
  3  2  1  0  0  0  0
  3  4  2  0  0  0  0
  4 40  1  0  0  0  0
  5  4  1  0  0  0  0
  5 41  1  0  0  0  0
  6  5  2  0  0  0  0
  7  8  2  0  0  0  0
  7  6  1  0  0  0  0
  8  3  1  0  0  0  0
  9  6  1  0  0  0  0
 10 11  1  0  0  0  0
 10  9  1  0  0  0  0
 11 12  1  0  0  0  0
 11 46  1  0  0  0  0
 12 13  1  0  0  0  0
 13 15  1  0  0  0  0
 13 14  2  0  0  0  0
 15 50  1  0  0  0  0
 16 51  1  6  0  0  0
 16 15  1  0  0  0  0
 16 17  1  0  0  0  0
 17 18  2  0  0  0  0
 19 17  1  0  0  0  0
 19 52  1  0  0  0  0
 20 16  1  0  0  0  0
 20 53  1  0  0  0  0
 21 20  1  0  0  0  0
 22 21  2  0  0  0  0
 23 21  1  0  0  0  0
 23 56  1  0  0  0  0
 24 57  1  6  0  0  0
 24  1  1  0  0  0  0
 25 24  1  0  0  0  0
 26 24  1  0  0  0  0
 26 27  1  0  0  0  0
 26 60  1  0  0  0  0
 27 28  1  0  0  0  0
 28 29  2  0  0  0  0
 28 30  2  0  0  0  0
 31 28  1  0  0  0  0
 31 36  2  0  0  0  0
 32 31  1  0  0  0  0
 33 32  2  0  0  0  0
 33 34  1  0  0  0  0
 34 35  2  0  0  0  0
 35 36  1  0  0  0  0
 35 65  1  0  0  0  0
 36 66  1  0  0  0  0
 39  2  1  0  0  0  0
 42  7  1  0  0  0  0
 43  8  1  0  0  0  0
 44 10  1  0  0  0  0
 45 10  1  0  0  0  0
 47 11  1  0  0  0  0
 48 12  1  0  0  0  0
 49 12  1  0  0  0  0
 54 20  1  0  0  0  0
 55 23  1  0  0  0  0
 58 25  1  0  0  0  0
 59 26  1  0  0  0  0
 61 27  1  0  0  0  0
 62 32  1  0  0  0  0
 63 33  1  0  0  0  0
 64 34  1  0  0  0  0
M  END
