omegapdb_1xom_08.log
 OpenBabel10161801213D
Gaussian 16 # PM6 Opt
 50 52  0  0  1  0  0  0  0  0999 V2000
   -5.3862    2.9354   -0.0611 O   0  0  0  0  0  0  0  0  0  0  0  0
   -5.0404    1.6032   -0.1550 C   0  0  0  0  0  0  0  0  0  0  0  0
   -5.8204    0.8187   -0.6363 O   0  0  0  0  0  0  0  0  0  0  0  0
   -3.6452    1.4072    0.4042 C   0  0  1  0  0  0  0  0  0  0  0  0
   -3.6698    0.2462    1.4194 C   0  0  0  0  0  0  0  0  0  0  0  0
   -2.3263   -0.4830    1.4611 C   0  0  0  0  0  0  0  0  0  0  0  0
   -2.0035   -1.1653    0.0999 C   0  0  2  0  0  0  0  0  0  0  0  0
   -2.5672   -0.3421   -1.0954 C   0  0  0  0  0  0  0  0  0  0  0  0
   -2.6720    1.1472   -0.7633 C   0  0  0  0  0  0  0  0  0  0  0  0
   -2.6895   -2.4741    0.0791 C   0  0  0  0  0  0  0  0  0  0  0  0
   -3.2479   -3.4848    0.0689 N   0  0  0  0  0  0  0  0  0  0  0  0
   -0.4905   -1.3425   -0.0178 C   0  0  0  0  0  0  0  0  0  0  0  0
    0.1251   -2.5885    0.1068 C   0  0  0  0  0  0  0  0  0  0  0  0
    1.5191   -2.7124    0.0049 C   0  0  0  0  0  0  0  0  0  0  0  0
    2.3094   -1.5886   -0.2221 C   0  0  0  0  0  0  0  0  0  0  0  0
    3.6874   -1.5999   -0.3478 O   0  0  0  0  0  0  0  0  0  0  0  0
    4.3611   -2.8742   -0.2041 C   0  0  0  0  0  0  0  0  0  0  0  0
    1.6941   -0.3074   -0.3407 C   0  0  0  0  0  0  0  0  0  0  0  0
    0.3044   -0.2029   -0.2325 C   0  0  0  0  0  0  0  0  0  0  0  0
    2.2982    0.8940   -0.5995 O   0  0  0  0  0  0  0  0  0  0  0  0
    3.7547    1.0365   -0.4722 C   0  0  0  0  0  0  0  0  0  0  0  0
    3.9971    2.4550   -1.0134 C   0  0  0  0  0  0  0  0  0  0  0  0
    4.6656    3.2568    0.1166 C   0  0  0  0  0  0  0  0  0  0  0  0
    5.0561    2.2485    1.2153 C   0  0  0  0  0  0  0  0  0  0  0  0
    4.1701    1.0115    1.0060 C   0  0  0  0  0  0  0  0  0  0  0  0
   -6.2915    3.1286   -0.4217 H   0  0  0  0  0  0  0  0  0  0  0  0
   -3.3324    2.3497    0.9255 H   0  0  0  0  0  0  0  0  0  0  0  0
   -4.4743   -0.4767    1.1575 H   0  0  0  0  0  0  0  0  0  0  0  0
   -3.9259    0.6314    2.4247 H   0  0  0  0  0  0  0  0  0  0  0  0
   -1.5170    0.2281    1.7226 H   0  0  0  0  0  0  0  0  0  0  0  0
   -2.3244   -1.2369    2.2726 H   0  0  0  0  0  0  0  0  0  0  0  0
   -1.9312   -0.4947   -1.9890 H   0  0  0  0  0  0  0  0  0  0  0  0
   -3.5749   -0.7191   -1.3779 H   0  0  0  0  0  0  0  0  0  0  0  0
   -2.9779    1.7159   -1.6634 H   0  0  0  0  0  0  0  0  0  0  0  0
   -1.6656    1.5415   -0.4925 H   0  0  0  0  0  0  0  0  0  0  0  0
   -0.4575   -3.4929    0.2833 H   0  0  0  0  0  0  0  0  0  0  0  0
    1.9656   -3.6995    0.1005 H   0  0  0  0  0  0  0  0  0  0  0  0
    4.1934   -3.2847    0.7955 H   0  0  0  0  0  0  0  0  0  0  0  0
    4.0397   -3.5648   -0.9893 H   0  0  0  0  0  0  0  0  0  0  0  0
    5.4111   -2.5852   -0.3415 H   0  0  0  0  0  0  0  0  0  0  0  0
   -0.1498    0.7889   -0.3259 H   0  0  0  0  0  0  0  0  0  0  0  0
    4.2299    0.2440   -1.0840 H   0  0  0  0  0  0  0  0  0  0  0  0
    4.6238    2.4274   -1.9194 H   0  0  0  0  0  0  0  0  0  0  0  0
    3.0342    2.9122   -1.3172 H   0  0  0  0  0  0  0  0  0  0  0  0
    3.9660    4.0114    0.5177 H   0  0  0  0  0  0  0  0  0  0  0  0
    5.5451    3.8105   -0.2495 H   0  0  0  0  0  0  0  0  0  0  0  0
    6.1238    1.9795    1.1326 H   0  0  0  0  0  0  0  0  0  0  0  0
    4.9200    2.6768    2.2215 H   0  0  0  0  0  0  0  0  0  0  0  0
    4.6884    0.0733    1.2634 H   0  0  0  0  0  0  0  0  0  0  0  0
    3.2705    1.0560    1.6485 H   0  0  0  0  0  0  0  0  0  0  0  0
  2  1  1  0  0  0  0
  2  4  1  0  0  0  0
  3  2  2  0  0  0  0
  4 27  1  1  0  0  0
  4  5  1  0  0  0  0
  5  6  1  0  0  0  0
  5 29  1  0  0  0  0
  6 30  1  0  0  0  0
  6 31  1  0  0  0  0
  7 12  1  6  0  0  0
  7  6  1  0  0  0  0
  8  9  1  0  0  0  0
  8  7  1  0  0  0  0
  9 35  1  0  0  0  0
  9  4  1  0  0  0  0
 10  7  1  0  0  0  0
 11 10  3  0  0  0  0
 12 13  2  0  0  0  0
 13 36  1  0  0  0  0
 14 37  1  0  0  0  0
 14 13  1  0  0  0  0
 15 14  2  0  0  0  0
 16 15  1  0  0  0  0
 16 17  1  0  0  0  0
 17 38  1  0  0  0  0
 18 19  2  0  0  0  0
 18 15  1  0  0  0  0
 19 12  1  0  0  0  0
 20 21  1  0  0  0  0
 20 18  1  0  0  0  0
 21 25  1  0  0  0  0
 22 21  1  0  0  0  0
 22 23  1  0  0  0  0
 23 45  1  0  0  0  0
 23 24  1  0  0  0  0
 24 48  1  0  0  0  0
 25 24  1  0  0  0  0
 25 49  1  0  0  0  0
 25 50  1  0  0  0  0
 26  1  1  0  0  0  0
 28  5  1  0  0  0  0
 32  8  1  0  0  0  0
 33  8  1  0  0  0  0
 34  9  1  0  0  0  0
 39 17  1  0  0  0  0
 40 17  1  0  0  0  0
 41 19  1  0  0  0  0
 42 21  1  0  0  0  0
 43 22  1  0  0  0  0
 44 22  1  0  0  0  0
 46 23  1  0  0  0  0
 47 24  1  0  0  0  0
M  END
