omegapdb_1z1r_02.log
 OpenBabel10161801213D
Gaussian 16 # PM6 Opt
 66 68  0  0  1  0  0  0  0  0999 V2000
   -0.1703   -1.6374   -0.5861 C   0  0  2  0  0  0  0  0  0  0  0  0
   -1.1000   -2.8233   -0.9196 C   0  0  0  0  0  0  0  0  0  0  0  0
   -2.4944   -2.5599   -0.4283 C   0  0  0  0  0  0  0  0  0  0  0  0
   -3.5122   -2.2394   -1.3361 C   0  0  0  0  0  0  0  0  0  0  0  0
   -4.7764   -1.8538   -0.8812 C   0  0  0  0  0  0  0  0  0  0  0  0
   -5.0000   -1.7965    0.4991 C   0  0  0  0  0  0  0  0  0  0  0  0
   -4.0159   -2.1824    1.4280 C   0  0  0  0  0  0  0  0  0  0  0  0
   -2.7667   -2.5656    0.9535 C   0  0  0  0  0  0  0  0  0  0  0  0
   -6.2088   -1.4189    1.0617 O   0  0  0  0  0  0  0  0  0  0  0  0
   -6.8647   -0.2533    0.4930 C   0  0  0  0  0  0  0  0  0  0  0  0
   -6.0523    1.0115    0.7674 C   0  0  0  0  0  0  0  0  0  0  0  0
   -5.1740    1.4598   -0.4074 C   0  0  0  0  0  0  0  0  0  0  0  0
   -3.7072    1.5374   -0.0160 C   0  0  0  0  0  0  0  0  0  0  0  0
   -3.2695    1.3958    1.1052 O   0  0  0  0  0  0  0  0  0  0  0  0
   -2.8394    1.7579   -1.1154 N   0  0  0  0  0  0  0  0  0  0  0  0
   -1.3952    2.0303   -0.9398 C   0  0  2  0  0  0  0  0  0  0  0  0
   -0.6813    0.7927   -0.3370 C   0  0  0  0  0  0  0  0  0  0  0  0
    0.0061    0.8359    0.6724 O   0  0  0  0  0  0  0  0  0  0  0  0
   -0.7261   -0.3635   -1.1212 N   0  0  0  0  0  0  0  0  0  0  0  0
   -1.1215    3.2640   -0.0678 C   0  0  0  0  0  0  0  0  0  0  0  0
    0.2638    3.8182   -0.3848 C   0  0  0  0  0  0  0  0  0  0  0  0
    0.4523    4.5693   -1.3326 O   0  0  0  0  0  0  0  0  0  0  0  0
    1.2825    3.4504    0.4725 N   0  0  0  0  0  0  0  0  0  0  0  0
    1.2424   -1.8689   -1.2058 C   0  0  2  0  0  0  0  0  0  0  0  0
    1.7173   -3.1396   -0.7578 O   0  0  0  0  0  0  0  0  0  0  0  0
    2.2638   -0.7558   -0.8801 C   0  0  0  0  0  0  0  0  0  0  0  0
    2.4635   -0.6292    0.5877 N   0  0  0  0  0  0  0  0  0  0  0  0
    3.7015    0.4688    1.0921 S   0  0  0  0  0  0  0  0  0  0  0  0
    3.4473    1.7573    0.4568 O   0  0  0  0  0  0  0  0  0  0  0  0
    3.7178    0.3955    2.5340 O   0  0  0  0  0  0  0  0  0  0  0  0
    5.1422   -0.2058    0.4206 C   0  0  0  0  0  0  0  0  0  0  0  0
    5.6677   -1.3928    0.9401 C   0  0  0  0  0  0  0  0  0  0  0  0
    6.8416   -1.9298    0.4017 C   0  0  0  0  0  0  0  0  0  0  0  0
    7.4897   -1.2735   -0.6499 C   0  0  0  0  0  0  0  0  0  0  0  0
    6.9682   -0.0803   -1.1642 C   0  0  0  0  0  0  0  0  0  0  0  0
    5.7951    0.4546   -0.6263 C   0  0  0  0  0  0  0  0  0  0  0  0
   -0.0713   -1.5544    0.5334 H   0  0  0  0  0  0  0  0  0  0  0  0
   -0.6758   -3.7432   -0.4559 H   0  0  0  0  0  0  0  0  0  0  0  0
   -1.0883   -3.0404   -2.0063 H   0  0  0  0  0  0  0  0  0  0  0  0
   -3.3251   -2.2871   -2.4075 H   0  0  0  0  0  0  0  0  0  0  0  0
   -5.5690   -1.6172   -1.5833 H   0  0  0  0  0  0  0  0  0  0  0  0
   -4.2399   -2.1516    2.4932 H   0  0  0  0  0  0  0  0  0  0  0  0
   -1.9862   -2.8490    1.6602 H   0  0  0  0  0  0  0  0  0  0  0  0
   -7.0735   -0.4271   -0.5740 H   0  0  0  0  0  0  0  0  0  0  0  0
   -7.8142   -0.2693    1.0651 H   0  0  0  0  0  0  0  0  0  0  0  0
   -6.7298    1.8355    1.0638 H   0  0  0  0  0  0  0  0  0  0  0  0
   -5.4146    0.8309    1.6715 H   0  0  0  0  0  0  0  0  0  0  0  0
   -5.2957    0.7697   -1.2690 H   0  0  0  0  0  0  0  0  0  0  0  0
   -5.5108    2.4534   -0.7685 H   0  0  0  0  0  0  0  0  0  0  0  0
   -3.2213    2.0707   -2.0054 H   0  0  0  0  0  0  0  0  0  0  0  0
   -0.9597    2.2110   -1.9673 H   0  0  0  0  0  0  0  0  0  0  0  0
   -1.4447   -0.4604   -1.8384 H   0  0  0  0  0  0  0  0  0  0  0  0
   -1.2438    3.0086    1.0107 H   0  0  0  0  0  0  0  0  0  0  0  0
   -1.8675    4.0610   -0.2657 H   0  0  0  0  0  0  0  0  0  0  0  0
    1.1710    2.6683    1.1118 H   0  0  0  0  0  0  0  0  0  0  0  0
    2.2528    3.6307    0.2197 H   0  0  0  0  0  0  0  0  0  0  0  0
    1.1718   -2.0078   -2.3105 H   0  0  0  0  0  0  0  0  0  0  0  0
    2.0838   -3.0703    0.1560 H   0  0  0  0  0  0  0  0  0  0  0  0
    3.2351   -1.0364   -1.3534 H   0  0  0  0  0  0  0  0  0  0  0  0
    1.9327    0.2001   -1.3502 H   0  0  0  0  0  0  0  0  0  0  0  0
    1.5442   -0.4796    1.0648 H   0  0  0  0  0  0  0  0  0  0  0  0
    5.1689   -1.9020    1.7710 H   0  0  0  0  0  0  0  0  0  0  0  0
    7.2516   -2.8551    0.8045 H   0  0  0  0  0  0  0  0  0  0  0  0
    8.4064   -1.6911   -1.0692 H   0  0  0  0  0  0  0  0  0  0  0  0
    7.4785    0.4332   -1.9782 H   0  0  0  0  0  0  0  0  0  0  0  0
    5.3904    1.3955   -1.0197 H   0  0  0  0  0  0  0  0  0  0  0  0
  1 37  1  1  0  0  0
  2  1  1  0  0  0  0
  2 38  1  0  0  0  0
  2  3  1  0  0  0  0
  3  8  2  0  0  0  0
  4  5  2  0  0  0  0
  4  3  1  0  0  0  0
  5  6  1  0  0  0  0
  6  9  1  0  0  0  0
  6  7  2  0  0  0  0
  7 42  1  0  0  0  0
  8  7  1  0  0  0  0
  8 43  1  0  0  0  0
 10 11  1  0  0  0  0
 10  9  1  0  0  0  0
 10 45  1  0  0  0  0
 11 46  1  0  0  0  0
 11 47  1  0  0  0  0
 12 13  1  0  0  0  0
 12 11  1  0  0  0  0
 13 14  2  0  0  0  0
 15 16  1  0  0  0  0
 15 13  1  0  0  0  0
 16 51  1  6  0  0  0
 16 17  1  0  0  0  0
 16 20  1  0  0  0  0
 17 18  2  0  0  0  0
 19  1  1  0  0  0  0
 19 17  1  0  0  0  0
 20 53  1  0  0  0  0
 21 20  1  0  0  0  0
 21 23  1  0  0  0  0
 22 21  2  0  0  0  0
 23 55  1  0  0  0  0
 24 57  1  6  0  0  0
 24 26  1  0  0  0  0
 24 25  1  0  0  0  0
 24  1  1  0  0  0  0
 25 58  1  0  0  0  0
 26 27  1  0  0  0  0
 27 61  1  0  0  0  0
 27 28  1  0  0  0  0
 28 30  2  0  0  0  0
 29 28  2  0  0  0  0
 31 32  1  0  0  0  0
 31 28  1  0  0  0  0
 32 62  1  0  0  0  0
 33 63  1  0  0  0  0
 33 32  2  0  0  0  0
 34 33  1  0  0  0  0
 35 34  2  0  0  0  0
 35 36  1  0  0  0  0
 36 31  2  0  0  0  0
 39  2  1  0  0  0  0
 40  4  1  0  0  0  0
 41  5  1  0  0  0  0
 44 10  1  0  0  0  0
 48 12  1  0  0  0  0
 49 12  1  0  0  0  0
 50 15  1  0  0  0  0
 52 19  1  0  0  0  0
 54 20  1  0  0  0  0
 56 23  1  0  0  0  0
 59 26  1  0  0  0  0
 60 26  1  0  0  0  0
 64 34  1  0  0  0  0
 65 35  1  0  0  0  0
 66 36  1  0  0  0  0
M  END
