omegapdb_2f7p_14.log
 OpenBabel10161801213D
Gaussian 16 # PM6 Opt
 34 35  0  0  1  0  0  0  0  0999 V2000
   -0.9978    0.1492   -0.9986 C   0  0  1  0  0  0  0  0  0  0  0  0
    0.4696    0.0244   -1.0338 N   0  0  0  0  0  0  0  0  0  0  0  0
    1.0962   -0.6195    0.1623 C   0  0  0  0  0  0  0  0  0  0  0  0
    2.5809   -0.3511    0.1658 C   0  0  0  0  0  0  0  0  0  0  0  0
    3.1813    0.2863    1.2608 C   0  0  0  0  0  0  0  0  0  0  0  0
    4.5608    0.5144    1.2658 C   0  0  0  0  0  0  0  0  0  0  0  0
    5.3442    0.1132    0.1796 C   0  0  0  0  0  0  0  0  0  0  0  0
    4.7455   -0.5194   -0.9153 C   0  0  0  0  0  0  0  0  0  0  0  0
    3.3685   -0.7532   -0.9238 C   0  0  0  0  0  0  0  0  0  0  0  0
   -1.7581   -1.2062   -0.8806 C   0  0  1  0  0  0  0  0  0  0  0  0
   -1.3143   -2.0688    0.1672 O   0  0  0  0  0  0  0  0  0  0  0  0
   -3.2033   -0.7696   -0.4987 C   0  0  1  0  0  0  0  0  0  0  0  0
   -3.8863   -1.7854    0.2248 O   0  0  0  0  0  0  0  0  0  0  0  0
   -2.9858    0.4409    0.4661 C   0  0  1  0  0  0  0  0  0  0  0  0
   -2.8289   -0.0813    1.7973 O   0  0  0  0  0  0  0  0  0  0  0  0
   -1.6131    1.0363    0.1181 C   0  0  2  0  0  0  0  0  0  0  0  0
   -1.7183    2.7713   -0.3717 S   0  0  0  0  0  0  0  0  0  0  0  0
   -1.2708    0.5726   -2.0091 H   0  0  0  0  0  0  0  0  0  0  0  0
    0.8882    0.9539   -1.1866 H   0  0  0  0  0  0  0  0  0  0  0  0
    0.9122   -1.7225    0.0767 H   0  0  0  0  0  0  0  0  0  0  0  0
    0.6328   -0.2987    1.1219 H   0  0  0  0  0  0  0  0  0  0  0  0
    2.5799    0.6043    2.1099 H   0  0  0  0  0  0  0  0  0  0  0  0
    5.0246    1.0071    2.1186 H   0  0  0  0  0  0  0  0  0  0  0  0
    6.4174    0.2923    0.1856 H   0  0  0  0  0  0  0  0  0  0  0  0
    5.3538   -0.8316   -1.7626 H   0  0  0  0  0  0  0  0  0  0  0  0
    2.8972   -1.2432   -1.7765 H   0  0  0  0  0  0  0  0  0  0  0  0
   -1.6694   -1.8379   -1.7854 H   0  0  0  0  0  0  0  0  0  0  0  0
   -1.3151   -1.5765    1.0374 H   0  0  0  0  0  0  0  0  0  0  0  0
   -3.8519   -0.5310   -1.3615 H   0  0  0  0  0  0  0  0  0  0  0  0
   -3.2415   -2.5076    0.4894 H   0  0  0  0  0  0  0  0  0  0  0  0
   -3.8279    1.1584    0.4692 H   0  0  0  0  0  0  0  0  0  0  0  0
   -3.6055   -0.6675    2.0073 H   0  0  0  0  0  0  0  0  0  0  0  0
   -0.9718    1.0220    1.0411 H   0  0  0  0  0  0  0  0  0  0  0  0
   -2.4259    2.6491   -1.5142 H   0  0  0  0  0  0  0  0  0  0  0  0
  1 18  1  6  0  0  0
  1 10  1  0  0  0  0
  1 16  1  0  0  0  0
  2  1  1  0  0  0  0
  2  3  1  0  0  0  0
  3  4  1  0  0  0  0
  3 21  1  0  0  0  0
  4  5  2  0  0  0  0
  5  6  1  0  0  0  0
  5 22  1  0  0  0  0
  6 23  1  0  0  0  0
  7 24  1  0  0  0  0
  7  6  2  0  0  0  0
  8  7  1  0  0  0  0
  9  8  2  0  0  0  0
  9  4  1  0  0  0  0
 10 27  1  6  0  0  0
 10 12  1  0  0  0  0
 10 11  1  0  0  0  0
 11 28  1  0  0  0  0
 12 29  1  6  0  0  0
 12 13  1  0  0  0  0
 12 14  1  0  0  0  0
 13 30  1  0  0  0  0
 14 31  1  6  0  0  0
 14 15  1  0  0  0  0
 15 32  1  0  0  0  0
 16 14  1  0  0  0  0
 16 33  1  1  0  0  0
 17 16  1  0  0  0  0
 19  2  1  0  0  0  0
 20  3  1  0  0  0  0
 25  8  1  0  0  0  0
 26  9  1  0  0  0  0
 34 17  1  0  0  0  0
M  END
