omegapdb_1xom_00.log
 OpenBabel10161801213D
Gaussian 16 # PM6 Opt
 50 52  0  0  1  0  0  0  0  0999 V2000
    5.2706   -2.6742   -0.3049 O   0  0  0  0  0  0  0  0  0  0  0  0
    5.1720   -1.3095   -0.1245 C   0  0  0  0  0  0  0  0  0  0  0  0
    6.1751   -0.6539    0.0102 O   0  0  0  0  0  0  0  0  0  0  0  0
    3.7111   -0.9104   -0.1369 C   0  0  1  0  0  0  0  0  0  0  0  0
    3.3438   -0.2909    1.2236 C   0  0  0  0  0  0  0  0  0  0  0  0
    1.8812    0.1609    1.2320 C   0  0  0  0  0  0  0  0  0  0  0  0
    1.5583    1.1404    0.0699 C   0  0  2  0  0  0  0  0  0  0  0  0
    2.0080    0.5494   -1.2947 C   0  0  0  0  0  0  0  0  0  0  0  0
    3.4688    0.0922   -1.2794 C   0  0  0  0  0  0  0  0  0  0  0  0
    2.3236    2.3820    0.3022 C   0  0  0  0  0  0  0  0  0  0  0  0
    2.9438    3.3389    0.4838 N   0  0  0  0  0  0  0  0  0  0  0  0
    0.0558    1.4190    0.0312 C   0  0  0  0  0  0  0  0  0  0  0  0
   -0.4639    2.7007    0.1490 C   0  0  0  0  0  0  0  0  0  0  0  0
   -1.8559    2.9270    0.1052 C   0  0  0  0  0  0  0  0  0  0  0  0
   -2.7212    1.8582   -0.0594 C   0  0  0  0  0  0  0  0  0  0  0  0
   -4.0937    1.9040   -0.1248 O   0  0  0  0  0  0  0  0  0  0  0  0
   -4.7142    3.2080   -0.0010 C   0  0  0  0  0  0  0  0  0  0  0  0
   -2.1922    0.5264   -0.1840 C   0  0  0  0  0  0  0  0  0  0  0  0
   -0.8227    0.3194   -0.1374 C   0  0  0  0  0  0  0  0  0  0  0  0
   -3.1602   -0.4273   -0.3438 O   0  0  0  0  0  0  0  0  0  0  0  0
   -2.7602   -1.8286   -0.5206 C   0  0  0  0  0  0  0  0  0  0  0  0
   -2.3535   -2.4496    0.8262 C   0  0  0  0  0  0  0  0  0  0  0  0
   -3.4388   -3.4796    1.1867 C   0  0  0  0  0  0  0  0  0  0  0  0
   -4.2693   -3.7205   -0.0881 C   0  0  0  0  0  0  0  0  0  0  0  0
   -4.0744   -2.4823   -0.9754 C   0  0  0  0  0  0  0  0  0  0  0  0
    6.2096   -2.9989   -0.3060 H   0  0  0  0  0  0  0  0  0  0  0  0
    3.0867   -1.8265   -0.3082 H   0  0  0  0  0  0  0  0  0  0  0  0
    4.0147    0.5680    1.4413 H   0  0  0  0  0  0  0  0  0  0  0  0
    3.5149   -1.0221    2.0376 H   0  0  0  0  0  0  0  0  0  0  0  0
    1.2146   -0.7212    1.1647 H   0  0  0  0  0  0  0  0  0  0  0  0
    1.6394    0.6436    2.2003 H   0  0  0  0  0  0  0  0  0  0  0  0
    1.3493   -0.3004   -1.5608 H   0  0  0  0  0  0  0  0  0  0  0  0
    1.8561    1.3040   -2.0926 H   0  0  0  0  0  0  0  0  0  0  0  0
    4.1459    0.9662   -1.1650 H   0  0  0  0  0  0  0  0  0  0  0  0
    3.7284   -0.3655   -2.2540 H   0  0  0  0  0  0  0  0  0  0  0  0
    0.1824    3.5694    0.2786 H   0  0  0  0  0  0  0  0  0  0  0  0
   -2.2258    3.9444    0.2017 H   0  0  0  0  0  0  0  0  0  0  0  0
   -4.4043    3.8585   -0.8235 H   0  0  0  0  0  0  0  0  0  0  0  0
   -5.7788    2.9509   -0.0827 H   0  0  0  0  0  0  0  0  0  0  0  0
   -4.4915    3.6466    0.9755 H   0  0  0  0  0  0  0  0  0  0  0  0
   -0.4141   -0.6838   -0.2277 H   0  0  0  0  0  0  0  0  0  0  0  0
   -1.9611   -1.8682   -1.2830 H   0  0  0  0  0  0  0  0  0  0  0  0
   -1.3619   -2.9257    0.7601 H   0  0  0  0  0  0  0  0  0  0  0  0
   -2.2784   -1.6672    1.6041 H   0  0  0  0  0  0  0  0  0  0  0  0
   -4.0826   -3.0886    1.9954 H   0  0  0  0  0  0  0  0  0  0  0  0
   -2.9981   -4.4165    1.5634 H   0  0  0  0  0  0  0  0  0  0  0  0
   -3.9257   -4.6307   -0.6104 H   0  0  0  0  0  0  0  0  0  0  0  0
   -5.3338   -3.8813    0.1498 H   0  0  0  0  0  0  0  0  0  0  0  0
   -4.0597   -2.7330   -2.0469 H   0  0  0  0  0  0  0  0  0  0  0  0
   -4.9062   -1.7572   -0.8388 H   0  0  0  0  0  0  0  0  0  0  0  0
  1  2  1  0  0  0  0
  2  3  2  0  0  0  0
  4 27  1  6  0  0  0
  4  2  1  0  0  0  0
  4  5  1  0  0  0  0
  5  6  1  0  0  0  0
  5 28  1  0  0  0  0
  5 29  1  0  0  0  0
  6 31  1  0  0  0  0
  7 12  1  6  0  0  0
  7 10  1  0  0  0  0
  7  6  1  0  0  0  0
  8  9  1  0  0  0  0
  8  7  1  0  0  0  0
  9 34  1  0  0  0  0
  9  4  1  0  0  0  0
 10 11  3  0  0  0  0
 12 13  2  0  0  0  0
 13 36  1  0  0  0  0
 14 13  1  0  0  0  0
 14 37  1  0  0  0  0
 15 14  2  0  0  0  0
 16 15  1  0  0  0  0
 16 17  1  0  0  0  0
 17 40  1  0  0  0  0
 18 19  2  0  0  0  0
 18 15  1  0  0  0  0
 19 12  1  0  0  0  0
 20 18  1  0  0  0  0
 21 20  1  0  0  0  0
 21 22  1  0  0  0  0
 22 23  1  0  0  0  0
 22 44  1  0  0  0  0
 23 46  1  0  0  0  0
 23 45  1  0  0  0  0
 24 48  1  0  0  0  0
 24 23  1  0  0  0  0
 25 50  1  0  0  0  0
 25 21  1  0  0  0  0
 25 24  1  0  0  0  0
 26  1  1  0  0  0  0
 30  6  1  0  0  0  0
 32  8  1  0  0  0  0
 33  8  1  0  0  0  0
 35  9  1  0  0  0  0
 38 17  1  0  0  0  0
 39 17  1  0  0  0  0
 41 19  1  0  0  0  0
 42 21  1  0  0  0  0
 43 22  1  0  0  0  0
 47 24  1  0  0  0  0
 49 25  1  0  0  0  0
M  END
