omegapdb_1gs5_06.log
 OpenBabel10161801213D
Gaussian 16 # PM6 Opt
 24 23  0  0  1  0  0  0  0  0999 V2000
    1.2075   -0.0515    0.6497 C   0  0  2  0  0  0  0  0  0  0  0  0
    2.2340   -0.9115   -0.0902 C   0  0  0  0  0  0  0  0  0  0  0  0
    2.7718   -0.7027   -1.1513 O   0  0  0  0  0  0  0  0  0  0  0  0
    2.5270   -2.0241    0.6474 O   0  0  0  0  0  0  0  0  0  0  0  0
   -0.1107   -0.8278    0.8278 C   0  0  0  0  0  0  0  0  0  0  0  0
   -0.8369   -1.1394   -0.4778 C   0  0  0  0  0  0  0  0  0  0  0  0
   -2.3418   -1.1592   -0.3101 C   0  0  0  0  0  0  0  0  0  0  0  0
   -3.0795   -2.0289   -0.6993 O   0  0  0  0  0  0  0  0  0  0  0  0
   -2.9135   -0.0816    0.3108 O   0  0  0  0  0  0  0  0  0  0  0  0
    1.0730    1.2229   -0.0986 N   0  0  0  0  0  0  0  0  0  0  0  0
    0.0426    2.1374    0.1420 C   0  0  0  0  0  0  0  0  0  0  0  0
   -0.8264    1.9122    0.9731 O   0  0  0  0  0  0  0  0  0  0  0  0
    0.1066    3.3872   -0.6821 C   0  0  0  0  0  0  0  0  0  0  0  0
    1.6177    0.1807    1.6786 H   0  0  0  0  0  0  0  0  0  0  0  0
    3.1951   -2.6195    0.2012 H   0  0  0  0  0  0  0  0  0  0  0  0
    0.1031   -1.7706    1.3789 H   0  0  0  0  0  0  0  0  0  0  0  0
   -0.7691   -0.2303    1.5083 H   0  0  0  0  0  0  0  0  0  0  0  0
   -0.5122   -2.1245   -0.8814 H   0  0  0  0  0  0  0  0  0  0  0  0
   -0.5825   -0.4102   -1.2767 H   0  0  0  0  0  0  0  0  0  0  0  0
   -2.2735    0.6283    0.6321 H   0  0  0  0  0  0  0  0  0  0  0  0
    1.7425    1.3687   -0.8612 H   0  0  0  0  0  0  0  0  0  0  0  0
    1.0391    3.9494   -0.5299 H   0  0  0  0  0  0  0  0  0  0  0  0
    0.0049    3.1933   -1.7592 H   0  0  0  0  0  0  0  0  0  0  0  0
   -0.7206    4.0646   -0.4019 H   0  0  0  0  0  0  0  0  0  0  0  0
  1  5  1  0  0  0  0
  1 14  1  1  0  0  0
  2  4  1  0  0  0  0
  2  1  1  0  0  0  0
  3  2  2  0  0  0  0
  5 16  1  0  0  0  0
  5 17  1  0  0  0  0
  6  7  1  0  0  0  0
  6  5  1  0  0  0  0
  7  9  1  0  0  0  0
  8  7  2  0  0  0  0
  9 20  1  0  0  0  0
 10 11  1  0  0  0  0
 10  1  1  0  0  0  0
 11 12  2  0  0  0  0
 13 22  1  0  0  0  0
 13 24  1  0  0  0  0
 13 11  1  0  0  0  0
 15  4  1  0  0  0  0
 18  6  1  0  0  0  0
 19  6  1  0  0  0  0
 21 10  1  0  0  0  0
 23 13  1  0  0  0  0
M  END
