omegapdb_1gs5_01.log
 OpenBabel10161801213D
Gaussian 16 # PM6 Opt
 24 23  0  0  1  0  0  0  0  0999 V2000
    0.6740    0.4931   -0.4619 C   0  0  2  0  0  0  0  0  0  0  0  0
    0.4866    1.7472    0.4006 C   0  0  0  0  0  0  0  0  0  0  0  0
    0.1224    1.8378    1.5494 O   0  0  0  0  0  0  0  0  0  0  0  0
    0.7852    2.8585   -0.3351 O   0  0  0  0  0  0  0  0  0  0  0  0
   -0.7023   -0.0549   -0.8774 C   0  0  0  0  0  0  0  0  0  0  0  0
   -1.5802   -0.4885    0.2976 C   0  0  0  0  0  0  0  0  0  0  0  0
   -3.0147   -0.6055   -0.1206 C   0  0  0  0  0  0  0  0  0  0  0  0
   -3.6164   -0.0802   -1.0257 O   0  0  0  0  0  0  0  0  0  0  0  0
   -3.6722   -1.4643    0.7332 O   0  0  0  0  0  0  0  0  0  0  0  0
    1.4684   -0.4705    0.3163 N   0  0  0  0  0  0  0  0  0  0  0  0
    2.6788   -0.9813   -0.1939 C   0  0  0  0  0  0  0  0  0  0  0  0
    3.0716   -0.6393   -1.2925 O   0  0  0  0  0  0  0  0  0  0  0  0
    3.3845   -1.9400    0.7166 C   0  0  0  0  0  0  0  0  0  0  0  0
    1.2544    0.7720   -1.4003 H   0  0  0  0  0  0  0  0  0  0  0  0
    0.6718    3.7095    0.1734 H   0  0  0  0  0  0  0  0  0  0  0  0
   -1.2327    0.7157   -1.4849 H   0  0  0  0  0  0  0  0  0  0  0  0
   -0.5487   -0.9115   -1.5697 H   0  0  0  0  0  0  0  0  0  0  0  0
   -1.2296   -1.4516    0.7295 H   0  0  0  0  0  0  0  0  0  0  0  0
   -1.5169    0.2417    1.1447 H   0  0  0  0  0  0  0  0  0  0  0  0
   -4.6382   -1.5602    0.5153 H   0  0  0  0  0  0  0  0  0  0  0  0
    1.1046   -0.7389    1.2260 H   0  0  0  0  0  0  0  0  0  0  0  0
    4.3263   -2.2763    0.2482 H   0  0  0  0  0  0  0  0  0  0  0  0
    2.7917   -2.8416    0.9221 H   0  0  0  0  0  0  0  0  0  0  0  0
    3.6536   -1.4859    1.6806 H   0  0  0  0  0  0  0  0  0  0  0  0
  1 14  1  6  0  0  0
  1 10  1  0  0  0  0
  1  2  1  0  0  0  0
  2  3  2  0  0  0  0
  4 15  1  0  0  0  0
  4  2  1  0  0  0  0
  5  1  1  0  0  0  0
  5  6  1  0  0  0  0
  6 18  1  0  0  0  0
  6 19  1  0  0  0  0
  7  6  1  0  0  0  0
  7  9  1  0  0  0  0
  8  7  2  0  0  0  0
 10 21  1  0  0  0  0
 11 10  1  0  0  0  0
 11 13  1  0  0  0  0
 12 11  2  0  0  0  0
 13 23  1  0  0  0  0
 13 24  1  0  0  0  0
 16  5  1  0  0  0  0
 17  5  1  0  0  0  0
 20  9  1  0  0  0  0
 22 13  1  0  0  0  0
M  END
