omegapdb_1xom_23.log
 OpenBabel10161801213D
Gaussian 16 # PM6 Opt
 50 52  0  0  1  0  0  0  0  0999 V2000
    6.0935   -1.8503   -0.7044 O   0  0  0  0  0  0  0  0  0  0  0  0
    4.9901   -1.7552    0.1277 C   0  0  0  0  0  0  0  0  0  0  0  0
    5.1713   -2.0666    1.2743 O   0  0  0  0  0  0  0  0  0  0  0  0
    3.6985   -1.2981   -0.5377 C   0  0  1  0  0  0  0  0  0  0  0  0
    2.5391   -1.3299    0.4776 C   0  0  0  0  0  0  0  0  0  0  0  0
    2.3326    0.0162    1.1735 C   0  0  0  0  0  0  0  0  0  0  0  0
    1.9801    1.1508    0.1681 C   0  0  2  0  0  0  0  0  0  0  0  0
    2.5642    0.8564   -1.2435 C   0  0  0  0  0  0  0  0  0  0  0  0
    3.8926    0.1026   -1.1539 C   0  0  0  0  0  0  0  0  0  0  0  0
    2.6226    2.3828    0.6720 C   0  0  0  0  0  0  0  0  0  0  0  0
    3.1509    3.3328    1.0612 N   0  0  0  0  0  0  0  0  0  0  0  0
    0.4688    1.3346    0.0459 C   0  0  0  0  0  0  0  0  0  0  0  0
   -0.1382    2.5875    0.1388 C   0  0  0  0  0  0  0  0  0  0  0  0
   -1.5284    2.7217    0.0042 C   0  0  0  0  0  0  0  0  0  0  0  0
   -2.3220    1.6025   -0.2347 C   0  0  0  0  0  0  0  0  0  0  0  0
   -3.6950    1.6244   -0.3990 O   0  0  0  0  0  0  0  0  0  0  0  0
   -4.3726    2.8887   -0.1951 C   0  0  0  0  0  0  0  0  0  0  0  0
   -1.7138    0.3161   -0.3355 C   0  0  0  0  0  0  0  0  0  0  0  0
   -0.3283    0.2009   -0.1915 C   0  0  0  0  0  0  0  0  0  0  0  0
   -2.3218   -0.8771   -0.6198 O   0  0  0  0  0  0  0  0  0  0  0  0
   -3.7761   -1.0260   -0.4652 C   0  0  0  0  0  0  0  0  0  0  0  0
   -4.0178   -2.4319   -1.0368 C   0  0  0  0  0  0  0  0  0  0  0  0
   -4.8726   -3.1764    0.0001 C   0  0  0  0  0  0  0  0  0  0  0  0
   -4.6644   -2.4541    1.3451 C   0  0  0  0  0  0  0  0  0  0  0  0
   -4.1661   -1.0357    1.0206 C   0  0  0  0  0  0  0  0  0  0  0  0
    5.9506   -1.5836   -1.6360 H   0  0  0  0  0  0  0  0  0  0  0  0
    3.4586   -2.0273   -1.3535 H   0  0  0  0  0  0  0  0  0  0  0  0
    2.7261   -2.1138    1.2435 H   0  0  0  0  0  0  0  0  0  0  0  0
    1.6016   -1.6281   -0.0425 H   0  0  0  0  0  0  0  0  0  0  0  0
    3.2526    0.2736    1.7403 H   0  0  0  0  0  0  0  0  0  0  0  0
    1.5348   -0.0680    1.9379 H   0  0  0  0  0  0  0  0  0  0  0  0
    1.8324    0.2667   -1.8323 H   0  0  0  0  0  0  0  0  0  0  0  0
    2.6947    1.8021   -1.8052 H   0  0  0  0  0  0  0  0  0  0  0  0
    4.3415    0.0192   -2.1616 H   0  0  0  0  0  0  0  0  0  0  0  0
    4.6104    0.6954   -0.5473 H   0  0  0  0  0  0  0  0  0  0  0  0
    0.4482    3.4889    0.3175 H   0  0  0  0  0  0  0  0  0  0  0  0
   -1.9696    3.7127    0.0830 H   0  0  0  0  0  0  0  0  0  0  0  0
   -4.0503    3.6165   -0.9455 H   0  0  0  0  0  0  0  0  0  0  0  0
   -4.2089    3.2514    0.8236 H   0  0  0  0  0  0  0  0  0  0  0  0
   -5.4214    2.6044   -0.3495 H   0  0  0  0  0  0  0  0  0  0  0  0
    0.1197   -0.7951   -0.2670 H   0  0  0  0  0  0  0  0  0  0  0  0
   -4.2650   -0.2199   -1.0480 H   0  0  0  0  0  0  0  0  0  0  0  0
   -3.0425   -2.9392   -1.1891 H   0  0  0  0  0  0  0  0  0  0  0  0
   -4.5016   -2.3935   -2.0248 H   0  0  0  0  0  0  0  0  0  0  0  0
   -4.5889   -4.2395    0.0666 H   0  0  0  0  0  0  0  0  0  0  0  0
   -5.9378   -3.1557   -0.2903 H   0  0  0  0  0  0  0  0  0  0  0  0
   -5.5945   -2.4298    1.9353 H   0  0  0  0  0  0  0  0  0  0  0  0
   -3.9193   -2.9914    1.9586 H   0  0  0  0  0  0  0  0  0  0  0  0
   -4.9416   -0.2771    1.2211 H   0  0  0  0  0  0  0  0  0  0  0  0
   -3.3003   -0.7621    1.6503 H   0  0  0  0  0  0  0  0  0  0  0  0
  1  2  1  0  0  0  0
  2  3  2  0  0  0  0
  4 27  1  6  0  0  0
  4  2  1  0  0  0  0
  4  5  1  0  0  0  0
  5  6  1  0  0  0  0
  5 28  1  0  0  0  0
  6 30  1  0  0  0  0
  6 31  1  0  0  0  0
  7 12  1  6  0  0  0
  7 10  1  0  0  0  0
  7  6  1  0  0  0  0
  8  9  1  0  0  0  0
  8  7  1  0  0  0  0
  9 35  1  0  0  0  0
  9  4  1  0  0  0  0
 10 11  3  0  0  0  0
 12 13  1  0  0  0  0
 13 36  1  0  0  0  0
 14 37  1  0  0  0  0
 14 13  2  0  0  0  0
 15 14  1  0  0  0  0
 16 15  1  0  0  0  0
 16 17  1  0  0  0  0
 17 39  1  0  0  0  0
 18 15  2  0  0  0  0
 18 19  1  0  0  0  0
 19 12  2  0  0  0  0
 20 21  1  0  0  0  0
 20 18  1  0  0  0  0
 21 25  1  0  0  0  0
 22 21  1  0  0  0  0
 22 23  1  0  0  0  0
 23 45  1  0  0  0  0
 23 24  1  0  0  0  0
 24 47  1  0  0  0  0
 24 48  1  0  0  0  0
 25 49  1  0  0  0  0
 25 24  1  0  0  0  0
 25 50  1  0  0  0  0
 26  1  1  0  0  0  0
 29  5  1  0  0  0  0
 32  8  1  0  0  0  0
 33  8  1  0  0  0  0
 34  9  1  0  0  0  0
 38 17  1  0  0  0  0
 40 17  1  0  0  0  0
 41 19  1  0  0  0  0
 42 21  1  0  0  0  0
 43 22  1  0  0  0  0
 44 22  1  0  0  0  0
 46 23  1  0  0  0  0
M  END
