omegapdb_1z1r_12.log
 OpenBabel10161801213D
Gaussian 16 # PM6 Opt
 66 68  0  0  1  0  0  0  0  0999 V2000
    0.0167   -1.0348    0.7427 C   0  0  2  0  0  0  0  0  0  0  0  0
   -0.5327   -2.2658   -0.0150 C   0  0  0  0  0  0  0  0  0  0  0  0
   -2.0306   -2.3524   -0.0095 C   0  0  0  0  0  0  0  0  0  0  0  0
   -2.7594   -2.2355    1.1851 C   0  0  0  0  0  0  0  0  0  0  0  0
   -4.1488   -2.1157    1.1571 C   0  0  0  0  0  0  0  0  0  0  0  0
   -4.7999   -2.1509   -0.0834 C   0  0  0  0  0  0  0  0  0  0  0  0
   -4.1046   -2.3947   -1.2780 C   0  0  0  0  0  0  0  0  0  0  0  0
   -2.7154   -2.4871   -1.2305 C   0  0  0  0  0  0  0  0  0  0  0  0
   -6.1731   -1.9717   -0.2016 O   0  0  0  0  0  0  0  0  0  0  0  0
   -6.6815   -0.7282    0.3585 C   0  0  0  0  0  0  0  0  0  0  0  0
   -6.4490    0.4371   -0.6067 C   0  0  0  0  0  0  0  0  0  0  0  0
   -5.0028    0.9442   -0.6682 C   0  0  0  0  0  0  0  0  0  0  0  0
   -4.5139    1.4646    0.6575 C   0  0  0  0  0  0  0  0  0  0  0  0
   -5.1550    1.5052    1.6931 O   0  0  0  0  0  0  0  0  0  0  0  0
   -3.1860    1.9458    0.7425 N   0  0  0  0  0  0  0  0  0  0  0  0
   -2.2010    2.0234   -0.3456 C   0  0  2  0  0  0  0  0  0  0  0  0
   -1.3131    0.7453   -0.4588 C   0  0  0  0  0  0  0  0  0  0  0  0
   -0.9267    0.4123   -1.5716 O   0  0  0  0  0  0  0  0  0  0  0  0
   -0.8980    0.1426    0.7127 N   0  0  0  0  0  0  0  0  0  0  0  0
   -1.2859    3.2447   -0.1437 C   0  0  0  0  0  0  0  0  0  0  0  0
    0.0693    3.1690   -0.8316 C   0  0  0  0  0  0  0  0  0  0  0  0
    1.1092    3.3504   -0.2167 O   0  0  0  0  0  0  0  0  0  0  0  0
    0.0828    2.9835   -2.2130 N   0  0  0  0  0  0  0  0  0  0  0  0
    1.3923   -0.6095    0.1489 C   0  0  2  0  0  0  0  0  0  0  0  0
    2.1668   -1.8212    0.2339 O   0  0  0  0  0  0  0  0  0  0  0  0
    2.0829    0.4978    0.9778 C   0  0  0  0  0  0  0  0  0  0  0  0
    3.1374    1.1255    0.1455 N   0  0  0  0  0  0  0  0  0  0  0  0
    4.7539    1.0823    0.7417 S   0  0  0  0  0  0  0  0  0  0  0  0
    4.7069    0.9417    2.1849 O   0  0  0  0  0  0  0  0  0  0  0  0
    5.4217    2.2091    0.1269 O   0  0  0  0  0  0  0  0  0  0  0  0
    5.3533   -0.3987    0.0686 C   0  0  0  0  0  0  0  0  0  0  0  0
    5.7792   -0.4384   -1.2620 C   0  0  0  0  0  0  0  0  0  0  0  0
    6.2581   -1.6351   -1.8046 C   0  0  0  0  0  0  0  0  0  0  0  0
    6.3163   -2.7859   -1.0110 C   0  0  0  0  0  0  0  0  0  0  0  0
    5.9006   -2.7422    0.3247 C   0  0  0  0  0  0  0  0  0  0  0  0
    5.4238   -1.5452    0.8665 C   0  0  0  0  0  0  0  0  0  0  0  0
    0.1576   -1.3096    1.8224 H   0  0  0  0  0  0  0  0  0  0  0  0
   -0.1557   -2.2464   -1.0630 H   0  0  0  0  0  0  0  0  0  0  0  0
   -0.0783   -3.1801    0.4252 H   0  0  0  0  0  0  0  0  0  0  0  0
   -2.2392   -2.2214    2.1414 H   0  0  0  0  0  0  0  0  0  0  0  0
   -4.7190   -1.9948    2.0753 H   0  0  0  0  0  0  0  0  0  0  0  0
   -4.6523   -2.4886   -2.2130 H   0  0  0  0  0  0  0  0  0  0  0  0
   -2.1545   -2.6343   -2.1543 H   0  0  0  0  0  0  0  0  0  0  0  0
   -6.2497   -0.5412    1.3584 H   0  0  0  0  0  0  0  0  0  0  0  0
   -7.7579   -0.9682    0.4542 H   0  0  0  0  0  0  0  0  0  0  0  0
   -6.7581    0.1256   -1.6271 H   0  0  0  0  0  0  0  0  0  0  0  0
   -7.1214    1.2715   -0.3132 H   0  0  0  0  0  0  0  0  0  0  0  0
   -4.9334    1.7420   -1.4387 H   0  0  0  0  0  0  0  0  0  0  0  0
   -4.3344    0.1263   -1.0265 H   0  0  0  0  0  0  0  0  0  0  0  0
   -2.9023    2.3297    1.6487 H   0  0  0  0  0  0  0  0  0  0  0  0
   -2.7330    2.1151   -1.3345 H   0  0  0  0  0  0  0  0  0  0  0  0
   -1.3837    0.3391    1.5862 H   0  0  0  0  0  0  0  0  0  0  0  0
   -1.8098    4.1681   -0.4779 H   0  0  0  0  0  0  0  0  0  0  0  0
   -1.0861    3.4172    0.9408 H   0  0  0  0  0  0  0  0  0  0  0  0
    0.9853    2.8545   -2.6589 H   0  0  0  0  0  0  0  0  0  0  0  0
   -0.6711    2.4884   -2.6750 H   0  0  0  0  0  0  0  0  0  0  0  0
    1.2932   -0.3184   -0.9232 H   0  0  0  0  0  0  0  0  0  0  0  0
    3.0270   -1.6958   -0.2253 H   0  0  0  0  0  0  0  0  0  0  0  0
    2.4987    0.0560    1.9153 H   0  0  0  0  0  0  0  0  0  0  0  0
    1.3397    1.2618    1.3039 H   0  0  0  0  0  0  0  0  0  0  0  0
    2.8077    2.0279   -0.2529 H   0  0  0  0  0  0  0  0  0  0  0  0
    5.7480    0.4659   -1.8788 H   0  0  0  0  0  0  0  0  0  0  0  0
    6.5908   -1.6685   -2.8411 H   0  0  0  0  0  0  0  0  0  0  0  0
    6.6904   -3.7196   -1.4335 H   0  0  0  0  0  0  0  0  0  0  0  0
    5.9526   -3.6373    0.9435 H   0  0  0  0  0  0  0  0  0  0  0  0
    5.1107   -1.5052    1.9172 H   0  0  0  0  0  0  0  0  0  0  0  0
  1 37  1  1  0  0  0
  2  3  1  0  0  0  0
  2 39  1  0  0  0  0
  2  1  1  0  0  0  0
  3  4  2  0  0  0  0
  4 40  1  0  0  0  0
  5  4  1  0  0  0  0
  5 41  1  0  0  0  0
  6  5  2  0  0  0  0
  7  8  2  0  0  0  0
  7  6  1  0  0  0  0
  8  3  1  0  0  0  0
  9  6  1  0  0  0  0
  9 10  1  0  0  0  0
 10 45  1  0  0  0  0
 10 44  1  0  0  0  0
 11 47  1  0  0  0  0
 11 10  1  0  0  0  0
 12 11  1  0  0  0  0
 12 13  1  0  0  0  0
 13 15  1  0  0  0  0
 13 14  2  0  0  0  0
 15 50  1  0  0  0  0
 16 51  1  6  0  0  0
 16 20  1  0  0  0  0
 16 15  1  0  0  0  0
 17 16  1  0  0  0  0
 17 19  1  0  0  0  0
 18 17  2  0  0  0  0
 19  1  1  0  0  0  0
 19 52  1  0  0  0  0
 20 54  1  0  0  0  0
 21 22  2  0  0  0  0
 21 20  1  0  0  0  0
 23 21  1  0  0  0  0
 24 57  1  6  0  0  0
 24 25  1  0  0  0  0
 24  1  1  0  0  0  0
 24 26  1  0  0  0  0
 26 60  1  0  0  0  0
 26 59  1  0  0  0  0
 27 28  1  0  0  0  0
 27 26  1  0  0  0  0
 28 29  2  0  0  0  0
 30 28  2  0  0  0  0
 31 28  1  0  0  0  0
 31 36  2  0  0  0  0
 32 31  1  0  0  0  0
 33 32  2  0  0  0  0
 33 34  1  0  0  0  0
 34 35  2  0  0  0  0
 35 36  1  0  0  0  0
 35 65  1  0  0  0  0
 36 66  1  0  0  0  0
 38  2  1  0  0  0  0
 42  7  1  0  0  0  0
 43  8  1  0  0  0  0
 46 11  1  0  0  0  0
 48 12  1  0  0  0  0
 49 12  1  0  0  0  0
 53 20  1  0  0  0  0
 55 23  1  0  0  0  0
 56 23  1  0  0  0  0
 58 25  1  0  0  0  0
 61 27  1  0  0  0  0
 62 32  1  0  0  0  0
 63 33  1  0  0  0  0
 64 34  1  0  0  0  0
M  END
