omegapdb_1m5f_19.log
 OpenBabel10161801213D
Gaussian 16 # PM6 Opt
 25 25  0  0  1  0  0  0  0  0999 V2000
    2.1994   -2.5936   -0.3016 O   0  0  0  0  0  0  0  0  0  0  0  0
    1.5037   -1.7333    0.4960 C   0  0  0  0  0  0  0  0  0  0  0  0
    0.8979   -2.1929    1.4327 O   0  0  0  0  0  0  0  0  0  0  0  0
    1.5644   -0.2849    0.1473 C   0  0  0  0  0  0  0  0  0  0  0  0
    2.5731    0.3047   -0.5067 N   0  0  0  0  0  0  0  0  0  0  0  0
    2.2866    1.6403   -0.6331 O   0  0  0  0  0  0  0  0  0  0  0  0
    1.0315    1.8832   -0.0270 C   0  0  0  0  0  0  0  0  0  0  0  0
    0.5434    0.6982    0.4795 C   0  0  0  0  0  0  0  0  0  0  0  0
   -0.7197    0.4165    1.1973 C   0  0  0  0  0  0  0  0  0  0  0  0
   -1.9566    0.5064    0.2798 C   0  0  2  0  0  0  0  0  0  0  0  0
   -3.2409    0.3242    1.0038 N   0  0  0  0  0  0  0  0  0  0  0  0
   -1.9101   -0.5411   -0.8513 C   0  0  0  0  0  0  0  0  0  0  0  0
   -0.9175   -0.9527   -1.3965 O   0  0  0  0  0  0  0  0  0  0  0  0
   -3.1135   -0.9854   -1.3188 O   0  0  0  0  0  0  0  0  0  0  0  0
    0.5865    3.2766   -0.0865 C   0  0  0  0  0  0  0  0  0  0  0  0
    2.6481   -2.1778   -1.0873 H   0  0  0  0  0  0  0  0  0  0  0  0
   -0.6602   -0.6013    1.6640 H   0  0  0  0  0  0  0  0  0  0  0  0
   -0.8343    1.1207    2.0495 H   0  0  0  0  0  0  0  0  0  0  0  0
   -1.9676    1.5107   -0.2292 H   0  0  0  0  0  0  0  0  0  0  0  0
   -3.1806   -0.4354    1.6813 H   0  0  0  0  0  0  0  0  0  0  0  0
   -3.4996    1.1654    1.5121 H   0  0  0  0  0  0  0  0  0  0  0  0
   -3.9108   -0.6386   -0.8170 H   0  0  0  0  0  0  0  0  0  0  0  0
    1.4185    3.9635   -0.3266 H   0  0  0  0  0  0  0  0  0  0  0  0
   -0.1781    3.4250   -0.8688 H   0  0  0  0  0  0  0  0  0  0  0  0
    0.1566    3.6107    0.8717 H   0  0  0  0  0  0  0  0  0  0  0  0
  1  2  1  0  0  0  0
  2  3  2  0  0  0  0
  4  8  1  0  0  0  0
  4  2  1  0  0  0  0
  5  4  2  0  0  0  0
  6  5  1  0  0  0  0
  6  7  1  0  0  0  0
  7  8  2  0  0  0  0
  8  9  1  0  0  0  0
  9 17  1  0  0  0  0
  9 18  1  0  0  0  0
 10 19  1  6  0  0  0
 10 11  1  0  0  0  0
 10  9  1  0  0  0  0
 11 21  1  0  0  0  0
 11 20  1  0  0  0  0
 12 10  1  0  0  0  0
 13 12  2  0  0  0  0
 14 12  1  0  0  0  0
 14 22  1  0  0  0  0
 15  7  1  0  0  0  0
 15 25  1  0  0  0  0
 16  1  1  0  0  0  0
 23 15  1  0  0  0  0
 24 15  1  0  0  0  0
M  END
