omegapdb_2f7p_16.log
 OpenBabel10161801213D
Gaussian 16 # PM6 Opt
 34 35  0  0  1  0  0  0  0  0999 V2000
   -0.5983    0.0713   -0.3080 C   0  0  1  0  0  0  0  0  0  0  0  0
   -0.0496   -0.8466    0.7431 N   0  0  0  0  0  0  0  0  0  0  0  0
    1.1462   -1.6121    0.2765 C   0  0  0  0  0  0  0  0  0  0  0  0
    2.4043   -0.7817    0.1859 C   0  0  0  0  0  0  0  0  0  0  0  0
    2.8830   -0.3592   -1.0619 C   0  0  0  0  0  0  0  0  0  0  0  0
    4.0410    0.4205   -1.1398 C   0  0  0  0  0  0  0  0  0  0  0  0
    4.7248    0.7815    0.0250 C   0  0  0  0  0  0  0  0  0  0  0  0
    4.2500    0.3581    1.2710 C   0  0  0  0  0  0  0  0  0  0  0  0
    3.0937   -0.4218    1.3535 C   0  0  0  0  0  0  0  0  0  0  0  0
   -1.5907   -0.7255   -1.2237 C   0  0  1  0  0  0  0  0  0  0  0  0
   -1.1584   -2.0306   -1.5525 O   0  0  0  0  0  0  0  0  0  0  0  0
   -2.9219   -0.7335   -0.4267 C   0  0  1  0  0  0  0  0  0  0  0  0
   -2.9110   -1.7834    0.5425 O   0  0  0  0  0  0  0  0  0  0  0  0
   -2.9568    0.6357    0.3156 C   0  0  1  0  0  0  0  0  0  0  0  0
   -3.4272    0.4898    1.6479 O   0  0  0  0  0  0  0  0  0  0  0  0
   -1.4938    1.1418    0.3543 C   0  0  2  0  0  0  0  0  0  0  0  0
   -1.3294    2.7402   -0.4859 S   0  0  0  0  0  0  0  0  0  0  0  0
    0.2157    0.5246   -0.9257 H   0  0  0  0  0  0  0  0  0  0  0  0
    0.2076   -0.2980    1.5767 H   0  0  0  0  0  0  0  0  0  0  0  0
    1.2884   -2.4542    0.9937 H   0  0  0  0  0  0  0  0  0  0  0  0
    0.9103   -2.0883   -0.7076 H   0  0  0  0  0  0  0  0  0  0  0  0
    2.3582   -0.6415   -1.9736 H   0  0  0  0  0  0  0  0  0  0  0  0
    4.4103    0.7469   -2.1110 H   0  0  0  0  0  0  0  0  0  0  0  0
    5.6254    1.3897   -0.0371 H   0  0  0  0  0  0  0  0  0  0  0  0
    4.7834    0.6360    2.1790 H   0  0  0  0  0  0  0  0  0  0  0  0
    2.7336   -0.7533    2.3255 H   0  0  0  0  0  0  0  0  0  0  0  0
   -1.6919   -0.2375   -2.2175 H   0  0  0  0  0  0  0  0  0  0  0  0
   -1.3273   -2.6503   -0.7937 H   0  0  0  0  0  0  0  0  0  0  0  0
   -3.8224   -0.9484   -1.0323 H   0  0  0  0  0  0  0  0  0  0  0  0
   -2.0321   -1.7924    1.0293 H   0  0  0  0  0  0  0  0  0  0  0  0
   -3.6613    1.3627   -0.1436 H   0  0  0  0  0  0  0  0  0  0  0  0
   -3.4731   -0.4737    1.9054 H   0  0  0  0  0  0  0  0  0  0  0  0
   -1.2114    1.3366    1.4209 H   0  0  0  0  0  0  0  0  0  0  0  0
   -1.6129    2.3672   -1.7509 H   0  0  0  0  0  0  0  0  0  0  0  0
  1 18  1  6  0  0  0
  1 16  1  0  0  0  0
  1  2  1  0  0  0  0
  2 19  1  0  0  0  0
  3  2  1  0  0  0  0
  3 20  1  0  0  0  0
  4  3  1  0  0  0  0
  4  9  2  0  0  0  0
  5  4  1  0  0  0  0
  6  5  2  0  0  0  0
  6  7  1  0  0  0  0
  7  8  2  0  0  0  0
  8  9  1  0  0  0  0
  8 25  1  0  0  0  0
  9 26  1  0  0  0  0
 10 27  1  6  0  0  0
 10 12  1  0  0  0  0
 10  1  1  0  0  0  0
 11 10  1  0  0  0  0
 11 28  1  0  0  0  0
 12 29  1  6  0  0  0
 12 14  1  0  0  0  0
 12 13  1  0  0  0  0
 13 30  1  0  0  0  0
 14 31  1  6  0  0  0
 14 16  1  0  0  0  0
 14 15  1  0  0  0  0
 15 32  1  0  0  0  0
 16 33  1  1  0  0  0
 17 16  1  0  0  0  0
 21  3  1  0  0  0  0
 22  5  1  0  0  0  0
 23  6  1  0  0  0  0
 24  7  1  0  0  0  0
 34 17  1  0  0  0  0
M  END
