omegapdb_1gs5_13.log
 OpenBabel10161801213D
Gaussian 16 # PM6 Opt
 24 23  0  0  1  0  0  0  0  0999 V2000
   -0.6039    0.5193    0.7686 C   0  0  2  0  0  0  0  0  0  0  0  0
   -0.7893    1.7283   -0.1662 C   0  0  0  0  0  0  0  0  0  0  0  0
   -1.7003    2.0240   -0.8943 O   0  0  0  0  0  0  0  0  0  0  0  0
    0.2913    2.5755   -0.0362 O   0  0  0  0  0  0  0  0  0  0  0  0
    0.5163   -0.3978    0.2441 C   0  0  0  0  0  0  0  0  0  0  0  0
    1.8967    0.1771    0.5603 C   0  0  0  0  0  0  0  0  0  0  0  0
    2.9702   -0.5740   -0.1662 C   0  0  0  0  0  0  0  0  0  0  0  0
    3.0251   -0.9840   -1.2988 O   0  0  0  0  0  0  0  0  0  0  0  0
    4.0463   -0.7605    0.6794 O   0  0  0  0  0  0  0  0  0  0  0  0
   -1.8946   -0.1803    0.9059 N   0  0  0  0  0  0  0  0  0  0  0  0
   -2.3796   -1.1072   -0.0511 C   0  0  0  0  0  0  0  0  0  0  0  0
   -1.6620   -1.5494   -0.9234 O   0  0  0  0  0  0  0  0  0  0  0  0
   -3.8071   -1.5158    0.1668 C   0  0  0  0  0  0  0  0  0  0  0  0
   -0.3180    0.9171    1.7852 H   0  0  0  0  0  0  0  0  0  0  0  0
    0.2320    3.3699   -0.6341 H   0  0  0  0  0  0  0  0  0  0  0  0
    0.4048   -1.4100    0.6907 H   0  0  0  0  0  0  0  0  0  0  0  0
    0.3968   -0.5765   -0.8536 H   0  0  0  0  0  0  0  0  0  0  0  0
    2.0955    0.1729    1.6549 H   0  0  0  0  0  0  0  0  0  0  0  0
    1.9546    1.2540    0.2553 H   0  0  0  0  0  0  0  0  0  0  0  0
    4.8005   -1.2389    0.2437 H   0  0  0  0  0  0  0  0  0  0  0  0
   -2.5496    0.2571    1.5517 H   0  0  0  0  0  0  0  0  0  0  0  0
   -4.0603   -2.3569   -0.5022 H   0  0  0  0  0  0  0  0  0  0  0  0
   -4.0126   -1.8487    1.1919 H   0  0  0  0  0  0  0  0  0  0  0  0
   -4.5056   -0.7016   -0.0759 H   0  0  0  0  0  0  0  0  0  0  0  0
  1 10  1  0  0  0  0
  1 14  1  1  0  0  0
  2  4  1  0  0  0  0
  2  1  1  0  0  0  0
  3  2  2  0  0  0  0
  5  6  1  0  0  0  0
  5 16  1  0  0  0  0
  5  1  1  0  0  0  0
  6 18  1  0  0  0  0
  7  6  1  0  0  0  0
  7  9  1  0  0  0  0
  8  7  2  0  0  0  0
 10 21  1  0  0  0  0
 11 13  1  0  0  0  0
 11 10  1  0  0  0  0
 12 11  2  0  0  0  0
 13 23  1  0  0  0  0
 15  4  1  0  0  0  0
 17  5  1  0  0  0  0
 19  6  1  0  0  0  0
 20  9  1  0  0  0  0
 22 13  1  0  0  0  0
 24 13  1  0  0  0  0
M  END
