omegapdb_1v2k_18.log
 OpenBabel10161801213D
Gaussian 16 # PM6 Opt
 61 65  0  0  0  0  0  0  0  0999 V2000
    9.5111   -2.0638   -0.6124 N   0  0  0  0  0  0  0  0  0  0  0  0
    8.4706   -2.8059   -0.1445 C   0  0  0  0  0  0  0  0  0  0  0  0
    7.1650   -2.3203   -0.0432 C   0  0  0  0  0  0  0  0  0  0  0  0
    6.8869   -0.9925   -0.4519 C   0  0  0  0  0  0  0  0  0  0  0  0
    7.9667   -0.2152   -0.9392 C   0  0  0  0  0  0  0  0  0  0  0  0
    9.2405   -0.7888   -1.0019 C   0  0  0  0  0  0  0  0  0  0  0  0
    5.5645   -0.4955   -0.4910 N   0  0  0  0  0  0  0  0  0  0  0  0
    5.3934    0.9940   -0.5054 C   0  0  0  0  0  0  0  0  0  0  0  0
    4.0314    1.4396    0.0433 C   0  0  0  0  0  0  0  0  0  0  0  0
    3.8065    0.9011    1.4647 C   0  0  0  0  0  0  0  0  0  0  0  0
    4.1591   -0.5909    1.5993 C   0  0  0  0  0  0  0  0  0  0  0  0
    4.4942   -1.2246    0.2414 C   0  0  0  0  0  0  0  0  0  0  0  0
    2.4009    1.2392    1.9709 C   0  0  0  0  0  0  0  0  0  0  0  0
    2.2681    2.0720    2.8587 O   0  0  0  0  0  0  0  0  0  0  0  0
    1.2648    0.5337    1.5380 N   0  0  0  0  0  0  0  0  0  0  0  0
   -0.0627    0.9770    2.0546 C   0  0  0  0  0  0  0  0  0  0  0  0
   -0.8325    1.8038    1.0031 C   0  0  0  0  0  0  0  0  0  0  0  0
   -0.9444    1.0230   -0.2629 N   0  0  0  0  0  0  0  0  0  0  0  0
    0.3887    0.6307   -0.8014 C   0  0  0  0  0  0  0  0  0  0  0  0
    1.1468   -0.2022    0.2570 C   0  0  0  0  0  0  0  0  0  0  0  0
   -2.0585    1.6453   -1.4372 S   0  0  0  0  0  0  0  0  0  0  0  0
   -2.0757    3.0894   -1.3295 O   0  0  0  0  0  0  0  0  0  0  0  0
   -1.6898    1.0116   -2.6888 O   0  0  0  0  0  0  0  0  0  0  0  0
   -3.5742    1.0212   -0.8814 C   0  0  0  0  0  0  0  0  0  0  0  0
   -3.9064   -0.2962   -1.0832 C   0  0  0  0  0  0  0  0  0  0  0  0
   -5.1605   -0.8030   -0.6218 C   0  0  0  0  0  0  0  0  0  0  0  0
   -6.0580    0.0758    0.0446 C   0  0  0  0  0  0  0  0  0  0  0  0
   -5.6876    1.4454    0.2300 C   0  0  0  0  0  0  0  0  0  0  0  0
   -4.4771    1.9047   -0.2245 C   0  0  0  0  0  0  0  0  0  0  0  0
   -7.3131   -0.4293    0.5114 C   0  0  0  0  0  0  0  0  0  0  0  0
   -7.6188   -1.7492    0.3011 C   0  0  0  0  0  0  0  0  0  0  0  0
   -6.7354   -2.6450   -0.3676 C   0  0  0  0  0  0  0  0  0  0  0  0
   -5.5294   -2.1736   -0.8189 C   0  0  0  0  0  0  0  0  0  0  0  0
   -9.1251   -2.3769    0.8568 Cl  0  0  0  0  0  0  0  0  0  0  0  0
    8.7152   -3.8306    0.1606 H   0  0  0  0  0  0  0  0  0  0  0  0
    6.3756   -2.9630    0.3380 H   0  0  0  0  0  0  0  0  0  0  0  0
    7.8268    0.8031   -1.2830 H   0  0  0  0  0  0  0  0  0  0  0  0
   10.0960   -0.2142   -1.3780 H   0  0  0  0  0  0  0  0  0  0  0  0
    5.4957    1.3202   -1.5672 H   0  0  0  0  0  0  0  0  0  0  0  0
    6.2043    1.4921    0.0756 H   0  0  0  0  0  0  0  0  0  0  0  0
    3.2241    1.1154   -0.6421 H   0  0  0  0  0  0  0  0  0  0  0  0
    3.9861    2.5484    0.0516 H   0  0  0  0  0  0  0  0  0  0  0  0
    4.4977    1.4701    2.1518 H   0  0  0  0  0  0  0  0  0  0  0  0
    3.3396   -1.1557    2.0853 H   0  0  0  0  0  0  0  0  0  0  0  0
    5.0263   -0.6972    2.2832 H   0  0  0  0  0  0  0  0  0  0  0  0
    3.5862   -1.2161   -0.4162 H   0  0  0  0  0  0  0  0  0  0  0  0
    4.7721   -2.2959    0.3727 H   0  0  0  0  0  0  0  0  0  0  0  0
    0.0805    1.5828    2.9826 H   0  0  0  0  0  0  0  0  0  0  0  0
   -0.6399    0.0671    2.3318 H   0  0  0  0  0  0  0  0  0  0  0  0
   -1.8537    2.0215    1.3872 H   0  0  0  0  0  0  0  0  0  0  0  0
   -0.3292    2.7870    0.8467 H   0  0  0  0  0  0  0  0  0  0  0  0
    0.9968    1.5153   -1.0977 H   0  0  0  0  0  0  0  0  0  0  0  0
    0.2358    0.0174   -1.7231 H   0  0  0  0  0  0  0  0  0  0  0  0
    0.5893   -1.1475    0.4598 H   0  0  0  0  0  0  0  0  0  0  0  0
    2.1487   -0.4950   -0.1387 H   0  0  0  0  0  0  0  0  0  0  0  0
   -3.2248   -0.9788   -1.6037 H   0  0  0  0  0  0  0  0  0  0  0  0
   -6.3863    2.1147    0.7324 H   0  0  0  0  0  0  0  0  0  0  0  0
   -4.1943    2.9576   -0.1003 H   0  0  0  0  0  0  0  0  0  0  0  0
   -8.0036    0.2417    1.0233 H   0  0  0  0  0  0  0  0  0  0  0  0
   -7.0334   -3.6846   -0.5092 H   0  0  0  0  0  0  0  0  0  0  0  0
   -4.8325   -2.8348   -1.3370 H   0  0  0  0  0  0  0  0  0  0  0  0
  1  2  2  0  0  0  0
  2  3  1  0  0  0  0
  2 35  1  0  0  0  0
  3 36  1  0  0  0  0
  4  3  2  0  0  0  0
  5  4  1  0  0  0  0
  6  5  2  0  0  0  0
  6  1  1  0  0  0  0
  7  4  1  0  0  0  0
  7 12  1  0  0  0  0
  8  7  1  0  0  0  0
  8  9  1  0  0  0  0
  8 40  1  0  0  0  0
  9 42  1  0  0  0  0
  9 10  1  0  0  0  0
 10 11  1  0  0  0  0
 10 13  1  0  0  0  0
 10 43  1  0  0  0  0
 11 44  1  0  0  0  0
 11 45  1  0  0  0  0
 12 47  1  0  0  0  0
 12 11  1  0  0  0  0
 13 14  2  0  0  0  0
 15 13  1  0  0  0  0
 15 16  1  0  0  0  0
 16 49  1  0  0  0  0
 16 48  1  0  0  0  0
 17 50  1  0  0  0  0
 17 16  1  0  0  0  0
 18 17  1  0  0  0  0
 19 18  1  0  0  0  0
 19 20  1  0  0  0  0
 20 54  1  0  0  0  0
 20 15  1  0  0  0  0
 21 22  2  0  0  0  0
 21 24  1  0  0  0  0
 21 18  1  0  0  0  0
 23 21  2  0  0  0  0
 24 29  1  0  0  0  0
 25 24  2  0  0  0  0
 25 26  1  0  0  0  0
 26 27  1  0  0  0  0
 27 28  1  0  0  0  0
 27 30  2  0  0  0  0
 28 57  1  0  0  0  0
 29 58  1  0  0  0  0
 29 28  2  0  0  0  0
 30 59  1  0  0  0  0
 31 30  1  0  0  0  0
 31 34  1  0  0  0  0
 32 31  2  0  0  0  0
 33 26  2  0  0  0  0
 33 32  1  0  0  0  0
 37  5  1  0  0  0  0
 38  6  1  0  0  0  0
 39  8  1  0  0  0  0
 41  9  1  0  0  0  0
 46 12  1  0  0  0  0
 51 17  1  0  0  0  0
 52 19  1  0  0  0  0
 53 19  1  0  0  0  0
 55 20  1  0  0  0  0
 56 25  1  0  0  0  0
 60 32  1  0  0  0  0
 61 33  1  0  0  0  0
M  END
