omegapdb_1qxw_08.log
 OpenBabel10161801213D
Gaussian 16 # PM6 Opt
 36 36  0  0  1  0  0  0  0  0999 V2000
    4.2095    1.1257    0.4208 C   0  0  0  0  0  0  0  0  0  0  0  0
    3.9024    1.7865   -0.9089 C   0  0  0  0  0  0  0  0  0  0  0  0
    2.7610    1.4293    0.0311 C   0  0  0  0  0  0  0  0  0  0  0  0
    1.8205    0.3815   -0.3698 N   0  0  0  0  0  0  0  0  0  0  0  0
    1.2621   -0.3392    0.8128 C   0  0  0  0  0  0  0  0  0  0  0  0
    0.2902   -1.4313    0.3185 C   0  0  0  0  0  0  0  0  0  0  0  0
   -0.8919   -0.9534   -0.5714 C   0  0  1  0  0  0  0  0  0  0  0  0
   -1.5245   -2.1876   -1.1185 N   0  0  0  0  0  0  0  0  0  0  0  0
   -1.8423   -0.0488    0.2338 C   0  0  0  0  0  0  0  0  0  0  0  0
   -2.9780    0.5180   -0.6243 C   0  0  0  0  0  0  0  0  0  0  0  0
   -3.8572    1.5054    0.1586 C   0  0  0  0  0  0  0  0  0  0  0  0
   -3.1789    2.8551    0.3810 C   0  0  0  0  0  0  0  0  0  0  0  0
    1.1076   -2.4053   -0.3134 O   0  0  0  0  0  0  0  0  0  0  0  0
   -0.2850   -2.0809    1.4595 O   0  0  0  0  0  0  0  0  0  0  0  0
    4.6852    1.7000    1.2104 H   0  0  0  0  0  0  0  0  0  0  0  0
    4.5646    0.0988    0.4355 H   0  0  0  0  0  0  0  0  0  0  0  0
    4.1540    2.8334   -1.0627 H   0  0  0  0  0  0  0  0  0  0  0  0
    4.0468    1.2277   -1.8312 H   0  0  0  0  0  0  0  0  0  0  0  0
    2.2403    2.2425    0.5597 H   0  0  0  0  0  0  0  0  0  0  0  0
    2.2686   -0.3040   -0.9967 H   0  0  0  0  0  0  0  0  0  0  0  0
    2.0408   -0.8090    1.4535 H   0  0  0  0  0  0  0  0  0  0  0  0
    0.7083    0.3791    1.4572 H   0  0  0  0  0  0  0  0  0  0  0  0
   -0.4549   -0.3724   -1.4302 H   0  0  0  0  0  0  0  0  0  0  0  0
   -2.0268   -2.6819   -0.3807 H   0  0  0  0  0  0  0  0  0  0  0  0
   -2.2012   -1.9526   -1.8388 H   0  0  0  0  0  0  0  0  0  0  0  0
   -1.2606    0.7888    0.6721 H   0  0  0  0  0  0  0  0  0  0  0  0
   -2.2488   -0.6086    1.1006 H   0  0  0  0  0  0  0  0  0  0  0  0
   -3.6137   -0.3038   -1.0054 H   0  0  0  0  0  0  0  0  0  0  0  0
   -2.5597    1.0208   -1.5188 H   0  0  0  0  0  0  0  0  0  0  0  0
   -4.8077    1.6578   -0.3906 H   0  0  0  0  0  0  0  0  0  0  0  0
   -4.1423    1.0645    1.1342 H   0  0  0  0  0  0  0  0  0  0  0  0
   -3.8260    3.5370    0.9433 H   0  0  0  0  0  0  0  0  0  0  0  0
   -2.9304    3.3430   -0.5686 H   0  0  0  0  0  0  0  0  0  0  0  0
   -2.2441    2.7485    0.9439 H   0  0  0  0  0  0  0  0  0  0  0  0
    0.5835   -2.9741   -0.9391 H   0  0  0  0  0  0  0  0  0  0  0  0
    0.3087   -2.7871    1.7901 H   0  0  0  0  0  0  0  0  0  0  0  0
  1 16  1  0  0  0  0
  1 15  1  0  0  0  0
  2  3  1  0  0  0  0
  2  1  1  0  0  0  0
  3  1  1  0  0  0  0
  3 19  1  0  0  0  0
  4  3  1  0  0  0  0
  4  5  1  0  0  0  0
  5 21  1  0  0  0  0
  5 22  1  0  0  0  0
  6  5  1  0  0  0  0
  6 14  1  0  0  0  0
  7 23  1  6  0  0  0
  7  9  1  0  0  0  0
  7  6  1  0  0  0  0
  8  7  1  0  0  0  0
  8 24  1  0  0  0  0
  9 26  1  0  0  0  0
  9 27  1  0  0  0  0
 10 11  1  0  0  0  0
 10  9  1  0  0  0  0
 11 12  1  0  0  0  0
 11 31  1  0  0  0  0
 12 32  1  0  0  0  0
 12 34  1  0  0  0  0
 13  6  1  0  0  0  0
 14 36  1  0  0  0  0
 17  2  1  0  0  0  0
 18  2  1  0  0  0  0
 20  4  1  0  0  0  0
 25  8  1  0  0  0  0
 28 10  1  0  0  0  0
 29 10  1  0  0  0  0
 30 11  1  0  0  0  0
 33 12  1  0  0  0  0
 35 13  1  0  0  0  0
M  END
