omegapdb_1xom_22.log
 OpenBabel10161801213D
Gaussian 16 # PM6 Opt
 50 52  0  0  1  0  0  0  0  0999 V2000
    6.8474    0.7949    0.2771 O   0  0  0  0  0  0  0  0  0  0  0  0
    5.8775   -0.1923    0.1953 C   0  0  0  0  0  0  0  0  0  0  0  0
    6.2108   -1.2143   -0.3407 O   0  0  0  0  0  0  0  0  0  0  0  0
    4.5258    0.1759    0.7912 C   0  0  1  0  0  0  0  0  0  0  0  0
    3.7566    1.0635   -0.2106 C   0  0  0  0  0  0  0  0  0  0  0  0
    2.8699    0.2265   -1.1356 C   0  0  0  0  0  0  0  0  0  0  0  0
    1.7502   -0.5076   -0.3487 C   0  0  2  0  0  0  0  0  0  0  0  0
    2.2356   -0.8733    1.0848 C   0  0  0  0  0  0  0  0  0  0  0  0
    3.7448   -1.1078    1.1376 C   0  0  0  0  0  0  0  0  0  0  0  0
    1.4555   -1.7550   -1.0878 C   0  0  0  0  0  0  0  0  0  0  0  0
    1.2278   -2.7292   -1.6635 N   0  0  0  0  0  0  0  0  0  0  0  0
    0.4506    0.2855   -0.2247 C   0  0  0  0  0  0  0  0  0  0  0  0
    0.3732    1.6487   -0.5049 C   0  0  0  0  0  0  0  0  0  0  0  0
   -0.8299    2.3573   -0.3565 C   0  0  0  0  0  0  0  0  0  0  0  0
   -1.9744    1.6889    0.0757 C   0  0  0  0  0  0  0  0  0  0  0  0
   -3.2227    2.2359    0.2379 O   0  0  0  0  0  0  0  0  0  0  0  0
   -3.3565    3.6648    0.0334 C   0  0  0  0  0  0  0  0  0  0  0  0
   -1.9018    0.2964    0.3832 C   0  0  0  0  0  0  0  0  0  0  0  0
   -0.7040   -0.3898    0.2275 C   0  0  0  0  0  0  0  0  0  0  0  0
   -3.0009   -0.3262    0.9394 O   0  0  0  0  0  0  0  0  0  0  0  0
   -3.7600   -1.2026    0.0334 C   0  0  0  0  0  0  0  0  0  0  0  0
   -4.6623   -0.3587   -0.8785 C   0  0  0  0  0  0  0  0  0  0  0  0
   -6.0651   -0.9746   -0.7707 C   0  0  0  0  0  0  0  0  0  0  0  0
   -6.1137   -1.7226    0.5764 C   0  0  0  0  0  0  0  0  0  0  0  0
   -4.6586   -1.9971    0.9937 C   0  0  0  0  0  0  0  0  0  0  0  0
    6.5722    1.6275    0.7129 H   0  0  0  0  0  0  0  0  0  0  0  0
    4.6884    0.7558    1.7330 H   0  0  0  0  0  0  0  0  0  0  0  0
    4.4566    1.6728   -0.8155 H   0  0  0  0  0  0  0  0  0  0  0  0
    3.1339    1.7868    0.3544 H   0  0  0  0  0  0  0  0  0  0  0  0
    3.5039   -0.5174   -1.6676 H   0  0  0  0  0  0  0  0  0  0  0  0
    2.4333    0.8534   -1.9362 H   0  0  0  0  0  0  0  0  0  0  0  0
    1.6994   -1.7705    1.4519 H   0  0  0  0  0  0  0  0  0  0  0  0
    1.9532   -0.0584    1.7821 H   0  0  0  0  0  0  0  0  0  0  0  0
    4.0404   -1.4696    2.1409 H   0  0  0  0  0  0  0  0  0  0  0  0
    4.0248   -1.9250    0.4343 H   0  0  0  0  0  0  0  0  0  0  0  0
    1.2490    2.1971   -0.8521 H   0  0  0  0  0  0  0  0  0  0  0  0
   -0.8529    3.4178   -0.5890 H   0  0  0  0  0  0  0  0  0  0  0  0
   -2.7250    4.2133    0.7376 H   0  0  0  0  0  0  0  0  0  0  0  0
   -4.4202    3.8187    0.2611 H   0  0  0  0  0  0  0  0  0  0  0  0
   -3.1355    3.9236   -1.0056 H   0  0  0  0  0  0  0  0  0  0  0  0
   -0.6718   -1.4528    0.4710 H   0  0  0  0  0  0  0  0  0  0  0  0
   -3.0402   -1.8315   -0.5214 H   0  0  0  0  0  0  0  0  0  0  0  0
   -4.2993   -0.3325   -1.9164 H   0  0  0  0  0  0  0  0  0  0  0  0
   -4.6607    0.6930   -0.5176 H   0  0  0  0  0  0  0  0  0  0  0  0
   -6.2482   -1.6714   -1.6075 H   0  0  0  0  0  0  0  0  0  0  0  0
   -6.8491   -0.2026   -0.8301 H   0  0  0  0  0  0  0  0  0  0  0  0
   -6.6208   -1.1062    1.3399 H   0  0  0  0  0  0  0  0  0  0  0  0
   -6.6915   -2.6571    0.4945 H   0  0  0  0  0  0  0  0  0  0  0  0
   -4.4204   -3.0721    0.9596 H   0  0  0  0  0  0  0  0  0  0  0  0
   -4.4718   -1.6684    2.0362 H   0  0  0  0  0  0  0  0  0  0  0  0
  1 26  1  0  0  0  0
  2  1  1  0  0  0  0
  2  4  1  0  0  0  0
  3  2  2  0  0  0  0
  4  9  1  0  0  0  0
  4 27  1  1  0  0  0
  5 29  1  0  0  0  0
  5  4  1  0  0  0  0
  6  7  1  0  0  0  0
  6  5  1  0  0  0  0
  7 10  1  6  0  0  0
  7 12  1  0  0  0  0
  7  8  1  0  0  0  0
  8  9  1  0  0  0  0
  8 32  1  0  0  0  0
  8 33  1  0  0  0  0
  9 34  1  0  0  0  0
 11 10  3  0  0  0  0
 12 19  2  0  0  0  0
 13 14  2  0  0  0  0
 13 12  1  0  0  0  0
 14 15  1  0  0  0  0
 15 16  1  0  0  0  0
 15 18  2  0  0  0  0
 17 16  1  0  0  0  0
 17 39  1  0  0  0  0
 17 38  1  0  0  0  0
 18 20  1  0  0  0  0
 19 18  1  0  0  0  0
 19 41  1  0  0  0  0
 21 20  1  0  0  0  0
 21 25  1  0  0  0  0
 22 23  1  0  0  0  0
 22 44  1  0  0  0  0
 22 21  1  0  0  0  0
 23 24  1  0  0  0  0
 24 25  1  0  0  0  0
 24 47  1  0  0  0  0
 25 50  1  0  0  0  0
 28  5  1  0  0  0  0
 30  6  1  0  0  0  0
 31  6  1  0  0  0  0
 35  9  1  0  0  0  0
 36 13  1  0  0  0  0
 37 14  1  0  0  0  0
 40 17  1  0  0  0  0
 42 21  1  0  0  0  0
 43 22  1  0  0  0  0
 45 23  1  0  0  0  0
 46 23  1  0  0  0  0
 48 24  1  0  0  0  0
 49 25  1  0  0  0  0
M  END
