omegapdb_1v2k_00.log
 OpenBabel10161801213D
Gaussian 16 # PM6 Opt
 61 65  0  0  0  0  0  0  0  0999 V2000
   -9.0975    2.8631    0.7728 N   0  0  0  0  0  0  0  0  0  0  0  0
   -9.0499    1.5571    1.1536 C   0  0  0  0  0  0  0  0  0  0  0  0
   -8.0970    0.6517    0.6809 C   0  0  0  0  0  0  0  0  0  0  0  0
   -7.1288    1.0937   -0.2542 C   0  0  0  0  0  0  0  0  0  0  0  0
   -7.1732    2.4529   -0.6516 C   0  0  0  0  0  0  0  0  0  0  0  0
   -8.1644    3.2841   -0.1241 C   0  0  0  0  0  0  0  0  0  0  0  0
   -6.2335    0.1832   -0.8646 N   0  0  0  0  0  0  0  0  0  0  0  0
   -4.9929    0.7263   -1.4904 C   0  0  0  0  0  0  0  0  0  0  0  0
   -3.9010    1.0105   -0.4426 C   0  0  0  0  0  0  0  0  0  0  0  0
   -3.5895   -0.2336    0.4105 C   0  0  0  0  0  0  0  0  0  0  0  0
   -4.8743   -0.8874    0.9545 C   0  0  0  0  0  0  0  0  0  0  0  0
   -5.9255   -1.0907   -0.1509 C   0  0  0  0  0  0  0  0  0  0  0  0
   -2.8158   -1.2542   -0.4310 C   0  0  0  0  0  0  0  0  0  0  0  0
   -3.2638   -1.7526   -1.4553 O   0  0  0  0  0  0  0  0  0  0  0  0
   -1.5789   -1.7117    0.0580 N   0  0  0  0  0  0  0  0  0  0  0  0
   -0.7634   -0.9835    1.0594 C   0  0  0  0  0  0  0  0  0  0  0  0
    0.3953   -0.2260    0.3692 C   0  0  0  0  0  0  0  0  0  0  0  0
    1.2377   -1.1236   -0.4669 N   0  0  0  0  0  0  0  0  0  0  0  0
    0.4147   -1.8872   -1.4470 C   0  0  0  0  0  0  0  0  0  0  0  0
   -0.7726   -2.6278   -0.7963 C   0  0  0  0  0  0  0  0  0  0  0  0
    2.4031   -2.0693    0.4116 S   0  0  0  0  0  0  0  0  0  0  0  0
    2.7366   -3.1914   -0.4416 O   0  0  0  0  0  0  0  0  0  0  0  0
    1.8824   -2.3034    1.7482 O   0  0  0  0  0  0  0  0  0  0  0  0
    3.7482   -0.9851    0.5202 C   0  0  0  0  0  0  0  0  0  0  0  0
    4.4985   -0.6832   -0.5902 C   0  0  0  0  0  0  0  0  0  0  0  0
    5.6093    0.2103   -0.4894 C   0  0  0  0  0  0  0  0  0  0  0  0
    5.9284    0.7768    0.7752 C   0  0  0  0  0  0  0  0  0  0  0  0
    5.1338    0.4350    1.9151 C   0  0  0  0  0  0  0  0  0  0  0  0
    4.0727   -0.4256    1.7886 C   0  0  0  0  0  0  0  0  0  0  0  0
    7.0386    1.6738    0.8791 C   0  0  0  0  0  0  0  0  0  0  0  0
    7.7682    1.9625   -0.2454 C   0  0  0  0  0  0  0  0  0  0  0  0
    7.4670    1.4033   -1.5207 C   0  0  0  0  0  0  0  0  0  0  0  0
    6.4054    0.5428   -1.6337 C   0  0  0  0  0  0  0  0  0  0  0  0
    9.1084    3.0415   -0.1409 Cl  0  0  0  0  0  0  0  0  0  0  0  0
   -9.8159    1.2430    1.8726 H   0  0  0  0  0  0  0  0  0  0  0  0
   -8.1158   -0.3812    1.0164 H   0  0  0  0  0  0  0  0  0  0  0  0
   -6.4616    2.8458   -1.3715 H   0  0  0  0  0  0  0  0  0  0  0  0
   -8.2288    4.3385   -0.4180 H   0  0  0  0  0  0  0  0  0  0  0  0
   -5.2272    1.6396   -2.0767 H   0  0  0  0  0  0  0  0  0  0  0  0
   -4.6299   -0.0445   -2.2183 H   0  0  0  0  0  0  0  0  0  0  0  0
   -4.2321    1.8310    0.2255 H   0  0  0  0  0  0  0  0  0  0  0  0
   -2.9862    1.3723   -0.9470 H   0  0  0  0  0  0  0  0  0  0  0  0
   -2.9719    0.0932    1.2895 H   0  0  0  0  0  0  0  0  0  0  0  0
   -4.6384   -1.8596    1.4285 H   0  0  0  0  0  0  0  0  0  0  0  0
   -5.2937   -0.2469    1.7561 H   0  0  0  0  0  0  0  0  0  0  0  0
   -6.8562   -1.5330    0.2631 H   0  0  0  0  0  0  0  0  0  0  0  0
   -5.5371   -1.8095   -0.9177 H   0  0  0  0  0  0  0  0  0  0  0  0
   -0.3497   -1.7313    1.7877 H   0  0  0  0  0  0  0  0  0  0  0  0
   -1.3959   -0.2826    1.6490 H   0  0  0  0  0  0  0  0  0  0  0  0
   -0.0078    0.5739   -0.2943 H   0  0  0  0  0  0  0  0  0  0  0  0
    1.0249    0.2849    1.1293 H   0  0  0  0  0  0  0  0  0  0  0  0
    0.0421   -1.1657   -2.2105 H   0  0  0  0  0  0  0  0  0  0  0  0
    1.0645   -2.6149   -1.9903 H   0  0  0  0  0  0  0  0  0  0  0  0
   -0.4215   -3.4731   -0.1621 H   0  0  0  0  0  0  0  0  0  0  0  0
   -1.4274   -3.0703   -1.5869 H   0  0  0  0  0  0  0  0  0  0  0  0
    4.2662   -1.1205   -1.5680 H   0  0  0  0  0  0  0  0  0  0  0  0
    5.3916    0.8660    2.8826 H   0  0  0  0  0  0  0  0  0  0  0  0
    3.4678   -0.7027    2.6612 H   0  0  0  0  0  0  0  0  0  0  0  0
    7.2863    2.1100    1.8473 H   0  0  0  0  0  0  0  0  0  0  0  0
    8.0843    1.6673   -2.3804 H   0  0  0  0  0  0  0  0  0  0  0  0
    6.1512    0.0966   -2.5970 H   0  0  0  0  0  0  0  0  0  0  0  0
  1  2  1  0  0  0  0
  2 35  1  0  0  0  0
  3 36  1  0  0  0  0
  3  2  2  0  0  0  0
  4  3  1  0  0  0  0
  5  4  2  0  0  0  0
  5  6  1  0  0  0  0
  6  1  2  0  0  0  0
  7  4  1  0  0  0  0
  7 12  1  0  0  0  0
  8  7  1  0  0  0  0
  8  9  1  0  0  0  0
  9 41  1  0  0  0  0
  9 10  1  0  0  0  0
 10 11  1  0  0  0  0
 10 43  1  0  0  0  0
 11 44  1  0  0  0  0
 11 45  1  0  0  0  0
 12 46  1  0  0  0  0
 12 11  1  0  0  0  0
 13 15  1  0  0  0  0
 13 10  1  0  0  0  0
 14 13  2  0  0  0  0
 15 16  1  0  0  0  0
 16 49  1  0  0  0  0
 16 48  1  0  0  0  0
 17 16  1  0  0  0  0
 17 51  1  0  0  0  0
 18 17  1  0  0  0  0
 18 21  1  0  0  0  0
 19 20  1  0  0  0  0
 19 18  1  0  0  0  0
 20 54  1  0  0  0  0
 20 15  1  0  0  0  0
 21 24  1  0  0  0  0
 21 23  2  0  0  0  0
 22 21  2  0  0  0  0
 24 29  2  0  0  0  0
 25 26  2  0  0  0  0
 25 24  1  0  0  0  0
 26 27  1  0  0  0  0
 27 30  1  0  0  0  0
 27 28  2  0  0  0  0
 28 57  1  0  0  0  0
 29 28  1  0  0  0  0
 29 58  1  0  0  0  0
 30 59  1  0  0  0  0
 31 34  1  0  0  0  0
 31 30  2  0  0  0  0
 32 31  1  0  0  0  0
 33 32  2  0  0  0  0
 33 26  1  0  0  0  0
 37  5  1  0  0  0  0
 38  6  1  0  0  0  0
 39  8  1  0  0  0  0
 40  8  1  0  0  0  0
 42  9  1  0  0  0  0
 47 12  1  0  0  0  0
 50 17  1  0  0  0  0
 52 19  1  0  0  0  0
 53 19  1  0  0  0  0
 55 20  1  0  0  0  0
 56 25  1  0  0  0  0
 60 32  1  0  0  0  0
 61 33  1  0  0  0  0
M  END
