omegapdb_2byh_09.log
 OpenBabel10161801213D
Gaussian 16 # PM6 Opt
 40 42  0  0  0  0  0  0  0  0999 V2000
   -7.4110   -0.4512    0.9627 O   0  0  0  0  0  0  0  0  0  0  0  0
   -6.5086   -1.0498    0.4109 C   0  0  0  0  0  0  0  0  0  0  0  0
   -6.7223   -2.4352   -0.1312 C   0  0  0  0  0  0  0  0  0  0  0  0
   -5.1612   -0.4330    0.2523 C   0  0  0  0  0  0  0  0  0  0  0  0
   -4.0893   -1.0828   -0.3765 C   0  0  0  0  0  0  0  0  0  0  0  0
   -2.8485   -0.4612   -0.4989 C   0  0  0  0  0  0  0  0  0  0  0  0
   -2.6692    0.8358    0.0147 C   0  0  0  0  0  0  0  0  0  0  0  0
   -3.7402    1.5031    0.6520 C   0  0  0  0  0  0  0  0  0  0  0  0
   -4.9703    0.8646    0.7638 C   0  0  0  0  0  0  0  0  0  0  0  0
   -1.4292    1.5355   -0.0796 N   0  0  0  0  0  0  0  0  0  0  0  0
   -0.2344    1.0461   -0.6614 C   0  0  0  0  0  0  0  0  0  0  0  0
   -0.1428   -0.0763   -1.1224 O   0  0  0  0  0  0  0  0  0  0  0  0
    0.8660    2.0205   -0.6509 C   0  0  0  0  0  0  0  0  0  0  0  0
    0.8139    3.4061   -1.0300 C   0  0  0  0  0  0  0  0  0  0  0  0
    2.0526    3.9513   -0.9651 N   0  0  0  0  0  0  0  0  0  0  0  0
    2.8949    2.9556   -0.5556 N   0  0  0  0  0  0  0  0  0  0  0  0
    2.2127    1.7480   -0.3514 C   0  0  0  0  0  0  0  0  0  0  0  0
    2.8777    0.5329    0.0759 C   0  0  0  0  0  0  0  0  0  0  0  0
    2.7035   -0.6432   -0.6834 C   0  0  0  0  0  0  0  0  0  0  0  0
    3.3823   -1.8042   -0.3381 C   0  0  0  0  0  0  0  0  0  0  0  0
    3.1907   -3.2280   -1.2669 Cl  0  0  0  0  0  0  0  0  0  0  0  0
    4.2381   -1.8276    0.7916 C   0  0  0  0  0  0  0  0  0  0  0  0
    4.9381   -2.9217    1.1773 O   0  0  0  0  0  0  0  0  0  0  0  0
    4.3964   -0.6888    1.5885 C   0  0  0  0  0  0  0  0  0  0  0  0
    3.6983    0.4698    1.2289 C   0  0  0  0  0  0  0  0  0  0  0  0
    3.8917    1.5287    2.0702 O   0  0  0  0  0  0  0  0  0  0  0  0
   -6.0588   -3.1684    0.3442 H   0  0  0  0  0  0  0  0  0  0  0  0
   -7.7563   -2.7674    0.0528 H   0  0  0  0  0  0  0  0  0  0  0  0
   -6.5573   -2.4813   -1.2150 H   0  0  0  0  0  0  0  0  0  0  0  0
   -4.2136   -2.0895   -0.7800 H   0  0  0  0  0  0  0  0  0  0  0  0
   -2.0191   -0.9822   -0.9905 H   0  0  0  0  0  0  0  0  0  0  0  0
   -3.6152    2.5050    1.0547 H   0  0  0  0  0  0  0  0  0  0  0  0
   -5.8114    1.3679    1.2550 H   0  0  0  0  0  0  0  0  0  0  0  0
   -1.4127    2.4714    0.3363 H   0  0  0  0  0  0  0  0  0  0  0  0
   -0.0548    3.9655   -1.3445 H   0  0  0  0  0  0  0  0  0  0  0  0
    3.8925    3.1244   -0.4895 H   0  0  0  0  0  0  0  0  0  0  0  0
    2.0152   -0.6350   -1.5438 H   0  0  0  0  0  0  0  0  0  0  0  0
    4.7842   -3.7206    0.5956 H   0  0  0  0  0  0  0  0  0  0  0  0
    5.0342   -0.7068    2.4730 H   0  0  0  0  0  0  0  0  0  0  0  0
    3.2252    2.2538    1.9461 H   0  0  0  0  0  0  0  0  0  0  0  0
  2  1  2  0  0  0  0
  3 28  1  0  0  0  0
  3 27  1  0  0  0  0
  3  2  1  0  0  0  0
  4  2  1  0  0  0  0
  4  9  2  0  0  0  0
  5  4  1  0  0  0  0
  6  5  2  0  0  0  0
  6  7  1  0  0  0  0
  7  8  2  0  0  0  0
  8  9  1  0  0  0  0
  8 32  1  0  0  0  0
  9 33  1  0  0  0  0
 10  7  1  0  0  0  0
 10 34  1  0  0  0  0
 11 13  1  0  0  0  0
 11 10  1  0  0  0  0
 12 11  2  0  0  0  0
 13 17  2  0  0  0  0
 14 15  2  0  0  0  0
 14 13  1  0  0  0  0
 15 16  1  0  0  0  0
 16 36  1  0  0  0  0
 16 17  1  0  0  0  0
 17 18  1  0  0  0  0
 18 25  2  0  0  0  0
 19 20  2  0  0  0  0
 19 18  1  0  0  0  0
 20 22  1  0  0  0  0
 21 20  1  0  0  0  0
 22 23  1  0  0  0  0
 22 24  2  0  0  0  0
 24 39  1  0  0  0  0
 25 24  1  0  0  0  0
 25 26  1  0  0  0  0
 29  3  1  0  0  0  0
 30  5  1  0  0  0  0
 31  6  1  0  0  0  0
 35 14  1  0  0  0  0
 37 19  1  0  0  0  0
 38 23  1  0  0  0  0
 40 26  1  0  0  0  0
M  END
