omegapdb_1qxw_29.log
 OpenBabel10161801213D
Gaussian 16 # PM6 Opt
 36 36  0  0  1  0  0  0  0  0999 V2000
   -3.9495   -2.0461   -0.8203 C   0  0  0  0  0  0  0  0  0  0  0  0
   -4.3405   -1.2645    0.4188 C   0  0  0  0  0  0  0  0  0  0  0  0
   -2.8665   -1.5570    0.1293 C   0  0  0  0  0  0  0  0  0  0  0  0
   -1.9382   -0.5241   -0.3338 N   0  0  0  0  0  0  0  0  0  0  0  0
   -1.4599    0.3319    0.7923 C   0  0  0  0  0  0  0  0  0  0  0  0
   -0.4867    1.3916    0.2339 C   0  0  0  0  0  0  0  0  0  0  0  0
    0.7482    0.8540   -0.5435 C   0  0  1  0  0  0  0  0  0  0  0  0
    1.3801    2.0391   -1.1902 N   0  0  0  0  0  0  0  0  0  0  0  0
    1.6777    0.0670    0.3985 C   0  0  0  0  0  0  0  0  0  0  0  0
    2.8588   -0.5663   -0.3438 C   0  0  0  0  0  0  0  0  0  0  0  0
    3.7239   -1.4096    0.6046 C   0  0  0  0  0  0  0  0  0  0  0  0
    4.9116   -2.0356   -0.1223 C   0  0  0  0  0  0  0  0  0  0  0  0
   -1.2906    2.2744   -0.5343 O   0  0  0  0  0  0  0  0  0  0  0  0
    0.0173    2.1694    1.3274 O   0  0  0  0  0  0  0  0  0  0  0  0
   -4.1628   -3.1111   -0.8767 H   0  0  0  0  0  0  0  0  0  0  0  0
   -4.0646   -1.5891   -1.8009 H   0  0  0  0  0  0  0  0  0  0  0  0
   -4.7254   -0.2540    0.3114 H   0  0  0  0  0  0  0  0  0  0  0  0
   -4.8375   -1.7715    1.2406 H   0  0  0  0  0  0  0  0  0  0  0  0
   -2.3489   -2.2943    0.7622 H   0  0  0  0  0  0  0  0  0  0  0  0
   -2.3741    0.0783   -1.0483 H   0  0  0  0  0  0  0  0  0  0  0  0
   -0.9260   -0.2988    1.5373 H   0  0  0  0  0  0  0  0  0  0  0  0
   -2.2817    0.8454    1.3385 H   0  0  0  0  0  0  0  0  0  0  0  0
    0.3671    0.1727   -1.3539 H   0  0  0  0  0  0  0  0  0  0  0  0
    2.0951    1.7467   -1.8501 H   0  0  0  0  0  0  0  0  0  0  0  0
    1.8365    2.6216   -0.4879 H   0  0  0  0  0  0  0  0  0  0  0  0
    2.0360    0.7322    1.2109 H   0  0  0  0  0  0  0  0  0  0  0  0
    1.0907   -0.7261    0.9056 H   0  0  0  0  0  0  0  0  0  0  0  0
    3.4839    0.2152   -0.8151 H   0  0  0  0  0  0  0  0  0  0  0  0
    2.4877   -1.2009   -1.1727 H   0  0  0  0  0  0  0  0  0  0  0  0
    4.0860   -0.7821    1.4426 H   0  0  0  0  0  0  0  0  0  0  0  0
    3.1079   -2.2055    1.0678 H   0  0  0  0  0  0  0  0  0  0  0  0
    5.5682   -1.2737   -0.5573 H   0  0  0  0  0  0  0  0  0  0  0  0
    5.5195   -2.6396    0.5610 H   0  0  0  0  0  0  0  0  0  0  0  0
    4.5862   -2.6924   -0.9373 H   0  0  0  0  0  0  0  0  0  0  0  0
   -0.7478    2.7869   -1.1920 H   0  0  0  0  0  0  0  0  0  0  0  0
   -0.6050    2.8924    1.5522 H   0  0  0  0  0  0  0  0  0  0  0  0
  1  3  1  0  0  0  0
  1  2  1  0  0  0  0
  2 18  1  0  0  0  0
  3  2  1  0  0  0  0
  3 19  1  0  0  0  0
  4  3  1  0  0  0  0
  4  5  1  0  0  0  0
  5 22  1  0  0  0  0
  5 21  1  0  0  0  0
  6  5  1  0  0  0  0
  6 14  1  0  0  0  0
  7 23  1  6  0  0  0
  7  6  1  0  0  0  0
  7  9  1  0  0  0  0
  8  7  1  0  0  0  0
  8 25  1  0  0  0  0
  9 27  1  0  0  0  0
  9 26  1  0  0  0  0
 10  9  1  0  0  0  0
 10 11  1  0  0  0  0
 11 31  1  0  0  0  0
 11 30  1  0  0  0  0
 12 33  1  0  0  0  0
 12 11  1  0  0  0  0
 13  6  1  0  0  0  0
 14 36  1  0  0  0  0
 15  1  1  0  0  0  0
 16  1  1  0  0  0  0
 17  2  1  0  0  0  0
 20  4  1  0  0  0  0
 24  8  1  0  0  0  0
 28 10  1  0  0  0  0
 29 10  1  0  0  0  0
 32 12  1  0  0  0  0
 34 12  1  0  0  0  0
 35 13  1  0  0  0  0
M  END
