omegapdb_1z1r_10.log
 OpenBabel10161801213D
Gaussian 16 # PM6 Opt
 66 68  0  0  1  0  0  0  0  0999 V2000
   -0.2901   -1.8866    0.5634 C   0  0  2  0  0  0  0  0  0  0  0  0
   -1.2420   -3.0062    0.0790 C   0  0  0  0  0  0  0  0  0  0  0  0
   -2.6639   -2.5187    0.0210 C   0  0  0  0  0  0  0  0  0  0  0  0
   -3.2569   -1.9332    1.1522 C   0  0  0  0  0  0  0  0  0  0  0  0
   -4.5037   -1.3172    1.0635 C   0  0  0  0  0  0  0  0  0  0  0  0
   -5.1708   -1.3198   -0.1700 C   0  0  0  0  0  0  0  0  0  0  0  0
   -4.6359   -1.9744   -1.2935 C   0  0  0  0  0  0  0  0  0  0  0  0
   -3.3801   -2.5685   -1.1869 C   0  0  0  0  0  0  0  0  0  0  0  0
   -6.4035   -0.7331   -0.3785 O   0  0  0  0  0  0  0  0  0  0  0  0
   -6.6996    0.4928    0.3514 C   0  0  0  0  0  0  0  0  0  0  0  0
   -6.2664    1.6994   -0.4812 C   0  0  0  0  0  0  0  0  0  0  0  0
   -4.7495    1.8925   -0.5525 C   0  0  0  0  0  0  0  0  0  0  0  0
   -4.1653    2.3033    0.7794 C   0  0  0  0  0  0  0  0  0  0  0  0
   -4.8159    2.7099    1.7273 O   0  0  0  0  0  0  0  0  0  0  0  0
   -2.7625    2.2877    0.9267 N   0  0  0  0  0  0  0  0  0  0  0  0
   -1.8260    1.6147    0.0184 C   0  0  2  0  0  0  0  0  0  0  0  0
   -1.1603    0.4376    0.7786 C   0  0  0  0  0  0  0  0  0  0  0  0
   -1.0207    0.4208    1.9907 O   0  0  0  0  0  0  0  0  0  0  0  0
   -0.6715   -0.5827   -0.0336 N   0  0  0  0  0  0  0  0  0  0  0  0
   -0.7181    2.5710   -0.4637 C   0  0  0  0  0  0  0  0  0  0  0  0
    0.0094    1.9427   -1.6411 C   0  0  0  0  0  0  0  0  0  0  0  0
   -0.5610    1.1817   -2.4176 O   0  0  0  0  0  0  0  0  0  0  0  0
    1.3278    2.3219   -1.8508 N   0  0  0  0  0  0  0  0  0  0  0  0
    1.1869   -2.1731    0.1710 C   0  0  2  0  0  0  0  0  0  0  0  0
    1.5335   -3.5204    0.5031 O   0  0  0  0  0  0  0  0  0  0  0  0
    2.1471   -1.1940    0.8839 C   0  0  0  0  0  0  0  0  0  0  0  0
    3.5492   -1.3452    0.4343 N   0  0  0  0  0  0  0  0  0  0  0  0
    4.1647   -0.2011   -0.6924 S   0  0  0  0  0  0  0  0  0  0  0  0
    4.4340   -0.8965   -1.9322 O   0  0  0  0  0  0  0  0  0  0  0  0
    3.2271    0.9227   -0.7150 O   0  0  0  0  0  0  0  0  0  0  0  0
    5.6510    0.2940    0.0249 C   0  0  0  0  0  0  0  0  0  0  0  0
    6.8609   -0.0499   -0.5894 C   0  0  0  0  0  0  0  0  0  0  0  0
    8.0716    0.3530   -0.0199 C   0  0  0  0  0  0  0  0  0  0  0  0
    8.0707    1.0991    1.1641 C   0  0  0  0  0  0  0  0  0  0  0  0
    6.8616    1.4439    1.7783 C   0  0  0  0  0  0  0  0  0  0  0  0
    5.6506    1.0411    1.2075 C   0  0  0  0  0  0  0  0  0  0  0  0
   -0.3695   -1.8027    1.6845 H   0  0  0  0  0  0  0  0  0  0  0  0
   -1.1557   -3.8801    0.7575 H   0  0  0  0  0  0  0  0  0  0  0  0
   -0.9119   -3.3906   -0.9084 H   0  0  0  0  0  0  0  0  0  0  0  0
   -2.7280   -1.9289    2.1068 H   0  0  0  0  0  0  0  0  0  0  0  0
   -4.9494   -0.8412    1.9353 H   0  0  0  0  0  0  0  0  0  0  0  0
   -5.2000   -1.9965   -2.2233 H   0  0  0  0  0  0  0  0  0  0  0  0
   -2.9463   -3.0586   -2.0589 H   0  0  0  0  0  0  0  0  0  0  0  0
   -6.2445    0.4841    1.3572 H   0  0  0  0  0  0  0  0  0  0  0  0
   -7.8011    0.4290    0.4395 H   0  0  0  0  0  0  0  0  0  0  0  0
   -6.7367    2.6115   -0.0510 H   0  0  0  0  0  0  0  0  0  0  0  0
   -6.6637    1.5920   -1.5123 H   0  0  0  0  0  0  0  0  0  0  0  0
   -4.2714    0.9619   -0.9338 H   0  0  0  0  0  0  0  0  0  0  0  0
   -4.5119    2.6754   -1.3065 H   0  0  0  0  0  0  0  0  0  0  0  0
   -2.3928    2.4991    1.8634 H   0  0  0  0  0  0  0  0  0  0  0  0
   -2.3760    1.2197   -0.8881 H   0  0  0  0  0  0  0  0  0  0  0  0
   -0.8391   -0.5740   -1.0484 H   0  0  0  0  0  0  0  0  0  0  0  0
   -1.1686    3.5352   -0.7919 H   0  0  0  0  0  0  0  0  0  0  0  0
   -0.0380    2.8440    0.3666 H   0  0  0  0  0  0  0  0  0  0  0  0
    1.9122    2.6250   -1.0771 H   0  0  0  0  0  0  0  0  0  0  0  0
    1.8628    1.7896   -2.5348 H   0  0  0  0  0  0  0  0  0  0  0  0
    1.3258   -2.1659   -0.9367 H   0  0  0  0  0  0  0  0  0  0  0  0
    1.4732   -3.6783    1.4676 H   0  0  0  0  0  0  0  0  0  0  0  0
    1.7951   -0.1410    0.7453 H   0  0  0  0  0  0  0  0  0  0  0  0
    2.1262   -1.3746    1.9853 H   0  0  0  0  0  0  0  0  0  0  0  0
    3.7759   -2.3413    0.2713 H   0  0  0  0  0  0  0  0  0  0  0  0
    6.8603   -0.6318   -1.5198 H   0  0  0  0  0  0  0  0  0  0  0  0
    9.0139    0.0869   -0.4981 H   0  0  0  0  0  0  0  0  0  0  0  0
    9.0161    1.4137    1.6095 H   0  0  0  0  0  0  0  0  0  0  0  0
    6.8631    2.0256    2.6995 H   0  0  0  0  0  0  0  0  0  0  0  0
    4.7078    1.3153    1.6895 H   0  0  0  0  0  0  0  0  0  0  0  0
  1 37  1  1  0  0  0
  2  1  1  0  0  0  0
  2 38  1  0  0  0  0
  3  2  1  0  0  0  0
  3  4  2  0  0  0  0
  4 40  1  0  0  0  0
  5  4  1  0  0  0  0
  5 41  1  0  0  0  0
  6  5  2  0  0  0  0
  7  8  2  0  0  0  0
  7  6  1  0  0  0  0
  8  3  1  0  0  0  0
  9  6  1  0  0  0  0
  9 10  1  0  0  0  0
 10 45  1  0  0  0  0
 10 44  1  0  0  0  0
 11 46  1  0  0  0  0
 11 10  1  0  0  0  0
 12 11  1  0  0  0  0
 12 13  1  0  0  0  0
 13 15  1  0  0  0  0
 13 14  2  0  0  0  0
 15 50  1  0  0  0  0
 16 51  1  6  0  0  0
 16 17  1  0  0  0  0
 16 15  1  0  0  0  0
 17 18  2  0  0  0  0
 19  1  1  0  0  0  0
 19 17  1  0  0  0  0
 20 16  1  0  0  0  0
 20 54  1  0  0  0  0
 21 20  1  0  0  0  0
 22 21  2  0  0  0  0
 23 21  1  0  0  0  0
 23 55  1  0  0  0  0
 24 57  1  6  0  0  0
 24 25  1  0  0  0  0
 24  1  1  0  0  0  0
 24 26  1  0  0  0  0
 25 58  1  0  0  0  0
 26 60  1  0  0  0  0
 27 26  1  0  0  0  0
 28 31  1  0  0  0  0
 28 27  1  0  0  0  0
 29 28  2  0  0  0  0
 30 28  2  0  0  0  0
 31 36  2  0  0  0  0
 32 33  2  0  0  0  0
 32 31  1  0  0  0  0
 33 34  1  0  0  0  0
 34 64  1  0  0  0  0
 34 35  2  0  0  0  0
 35 65  1  0  0  0  0
 36 66  1  0  0  0  0
 36 35  1  0  0  0  0
 39  2  1  0  0  0  0
 42  7  1  0  0  0  0
 43  8  1  0  0  0  0
 47 11  1  0  0  0  0
 48 12  1  0  0  0  0
 49 12  1  0  0  0  0
 52 19  1  0  0  0  0
 53 20  1  0  0  0  0
 56 23  1  0  0  0  0
 59 26  1  0  0  0  0
 61 27  1  0  0  0  0
 62 32  1  0  0  0  0
 63 33  1  0  0  0  0
M  END
