omegapdb_1qxw_03.log
 OpenBabel10161801213D
Gaussian 16 # PM6 Opt
 36 36  0  0  1  0  0  0  0  0999 V2000
   -4.8345   -0.7656    0.0136 C   0  0  0  0  0  0  0  0  0  0  0  0
   -3.9656    0.1574    0.8454 C   0  0  0  0  0  0  0  0  0  0  0  0
   -3.3620   -1.0970    0.2067 C   0  0  0  0  0  0  0  0  0  0  0  0
   -2.4911   -1.0314   -0.9678 N   0  0  0  0  0  0  0  0  0  0  0  0
   -1.0486   -0.9312   -0.6396 C   0  0  0  0  0  0  0  0  0  0  0  0
   -0.5618    0.4539   -0.1433 C   0  0  0  0  0  0  0  0  0  0  0  0
    0.9233    0.7911   -0.4783 C   0  0  1  0  0  0  0  0  0  0  0  0
    1.1323    2.2106   -0.0752 N   0  0  0  0  0  0  0  0  0  0  0  0
    1.8754   -0.2098    0.2033 C   0  0  0  0  0  0  0  0  0  0  0  0
    3.3346   -0.0005   -0.2143 C   0  0  0  0  0  0  0  0  0  0  0  0
    4.2533   -1.0516    0.4262 C   0  0  0  0  0  0  0  0  0  0  0  0
    5.7114   -0.8456    0.0234 C   0  0  0  0  0  0  0  0  0  0  0  0
   -0.6655    0.5530    1.2771 O   0  0  0  0  0  0  0  0  0  0  0  0
   -1.4593    1.4088   -0.6868 O   0  0  0  0  0  0  0  0  0  0  0  0
   -5.5851   -1.3837    0.5002 H   0  0  0  0  0  0  0  0  0  0  0  0
   -5.1948   -0.4307   -0.9572 H   0  0  0  0  0  0  0  0  0  0  0  0
   -4.1141    0.2065    1.9190 H   0  0  0  0  0  0  0  0  0  0  0  0
   -3.7007    1.1366    0.4442 H   0  0  0  0  0  0  0  0  0  0  0  0
   -3.0947   -1.9392    0.8622 H   0  0  0  0  0  0  0  0  0  0  0  0
   -2.7563   -0.2466   -1.5823 H   0  0  0  0  0  0  0  0  0  0  0  0
   -0.7796   -1.6943    0.1256 H   0  0  0  0  0  0  0  0  0  0  0  0
   -0.4979   -1.2075   -1.5692 H   0  0  0  0  0  0  0  0  0  0  0  0
    1.0443    0.7364   -1.5929 H   0  0  0  0  0  0  0  0  0  0  0  0
    1.0517    2.3019    0.9388 H   0  0  0  0  0  0  0  0  0  0  0  0
    2.0642    2.5223   -0.3337 H   0  0  0  0  0  0  0  0  0  0  0  0
    1.7689   -0.1275    1.3054 H   0  0  0  0  0  0  0  0  0  0  0  0
    1.5677   -1.2461   -0.0370 H   0  0  0  0  0  0  0  0  0  0  0  0
    3.6775    1.0116    0.0735 H   0  0  0  0  0  0  0  0  0  0  0  0
    3.4256   -0.0483   -1.3171 H   0  0  0  0  0  0  0  0  0  0  0  0
    3.9253   -2.0685    0.1334 H   0  0  0  0  0  0  0  0  0  0  0  0
    4.1606   -1.0111    1.5295 H   0  0  0  0  0  0  0  0  0  0  0  0
    6.0844    0.1359    0.3372 H   0  0  0  0  0  0  0  0  0  0  0  0
    6.3586   -1.6023    0.4819 H   0  0  0  0  0  0  0  0  0  0  0  0
    5.8460   -0.9159   -1.0621 H   0  0  0  0  0  0  0  0  0  0  0  0
   -1.6072    0.5871    1.5563 H   0  0  0  0  0  0  0  0  0  0  0  0
   -1.0867    2.3281   -0.6362 H   0  0  0  0  0  0  0  0  0  0  0  0
  1  3  1  0  0  0  0
  1 15  1  0  0  0  0
  1  2  1  0  0  0  0
  2 17  1  0  0  0  0
  3  2  1  0  0  0  0
  3 19  1  0  0  0  0
  4  5  1  0  0  0  0
  4  3  1  0  0  0  0
  5  6  1  0  0  0  0
  5 21  1  0  0  0  0
  6 13  1  0  0  0  0
  7 23  1  6  0  0  0
  7  6  1  0  0  0  0
  7  8  1  0  0  0  0
  7  9  1  0  0  0  0
  8 24  1  0  0  0  0
  9 26  1  0  0  0  0
 10 28  1  0  0  0  0
 10  9  1  0  0  0  0
 10 11  1  0  0  0  0
 11 31  1  0  0  0  0
 12 32  1  0  0  0  0
 12 11  1  0  0  0  0
 12 33  1  0  0  0  0
 13 35  1  0  0  0  0
 14 36  1  0  0  0  0
 14  6  1  0  0  0  0
 16  1  1  0  0  0  0
 18  2  1  0  0  0  0
 20  4  1  0  0  0  0
 22  5  1  0  0  0  0
 25  8  1  0  0  0  0
 27  9  1  0  0  0  0
 29 10  1  0  0  0  0
 30 11  1  0  0  0  0
 34 12  1  0  0  0  0
M  END
