omegapdb_1m5f_08.log
 OpenBabel10161801213D
Gaussian 16 # PM6 Opt
 25 25  0  0  1  0  0  0  0  0999 V2000
    0.8360   -2.3265    0.7005 O   0  0  0  0  0  0  0  0  0  0  0  0
    1.7463   -1.8172   -0.2035 C   0  0  0  0  0  0  0  0  0  0  0  0
    2.3299   -2.5474   -0.9590 O   0  0  0  0  0  0  0  0  0  0  0  0
    1.8043   -0.3461   -0.0651 C   0  0  0  0  0  0  0  0  0  0  0  0
    2.9133    0.3084    0.3093 N   0  0  0  0  0  0  0  0  0  0  0  0
    2.6388    1.6525    0.3041 O   0  0  0  0  0  0  0  0  0  0  0  0
    1.2958    1.8330   -0.0960 C   0  0  0  0  0  0  0  0  0  0  0  0
    0.7306    0.5971   -0.3343 C   0  0  0  0  0  0  0  0  0  0  0  0
   -0.6486    0.2753   -0.7571 C   0  0  0  0  0  0  0  0  0  0  0  0
   -1.6142    0.2679    0.4551 C   0  0  2  0  0  0  0  0  0  0  0  0
   -1.3991   -0.8112    1.4431 N   0  0  0  0  0  0  0  0  0  0  0  0
   -3.0477    0.1344   -0.0607 C   0  0  0  0  0  0  0  0  0  0  0  0
   -3.9447    0.9372   -0.0114 O   0  0  0  0  0  0  0  0  0  0  0  0
   -3.2322   -1.0787   -0.6822 O   0  0  0  0  0  0  0  0  0  0  0  0
    0.8525    3.2255   -0.1567 C   0  0  0  0  0  0  0  0  0  0  0  0
    0.7911   -3.3245    0.6701 H   0  0  0  0  0  0  0  0  0  0  0  0
   -0.6880   -0.7105   -1.2734 H   0  0  0  0  0  0  0  0  0  0  0  0
   -0.9975    1.0101   -1.5162 H   0  0  0  0  0  0  0  0  0  0  0  0
   -1.5442    1.2525    0.9995 H   0  0  0  0  0  0  0  0  0  0  0  0
   -0.4728   -0.7318    1.8646 H   0  0  0  0  0  0  0  0  0  0  0  0
   -1.4355   -1.7279    0.9949 H   0  0  0  0  0  0  0  0  0  0  0  0
   -4.1688   -1.2134   -0.9916 H   0  0  0  0  0  0  0  0  0  0  0  0
    0.0491    3.4312    0.5728 H   0  0  0  0  0  0  0  0  0  0  0  0
    0.4595    3.4852   -1.1554 H   0  0  0  0  0  0  0  0  0  0  0  0
    1.6725    3.9332    0.0617 H   0  0  0  0  0  0  0  0  0  0  0  0
  2  4  1  0  0  0  0
  2  1  1  0  0  0  0
  3  2  2  0  0  0  0
  4  5  2  0  0  0  0
  6  5  1  0  0  0  0
  7  6  1  0  0  0  0
  8  7  2  0  0  0  0
  8  4  1  0  0  0  0
  9  8  1  0  0  0  0
  9 10  1  0  0  0  0
 10 19  1  1  0  0  0
 10 11  1  0  0  0  0
 11 20  1  0  0  0  0
 12 13  2  0  0  0  0
 12 10  1  0  0  0  0
 14 12  1  0  0  0  0
 15  7  1  0  0  0  0
 15 25  1  0  0  0  0
 15 23  1  0  0  0  0
 16  1  1  0  0  0  0
 17  9  1  0  0  0  0
 18  9  1  0  0  0  0
 21 11  1  0  0  0  0
 22 14  1  0  0  0  0
 24 15  1  0  0  0  0
M  END
