omegapdb_1z1r_14.log
 OpenBabel10161801213D
Gaussian 16 # PM6 Opt
 66 68  0  0  1  0  0  0  0  0999 V2000
    0.2455   -1.3049    0.0928 C   0  0  2  0  0  0  0  0  0  0  0  0
   -0.3220   -2.6081   -0.5197 C   0  0  0  0  0  0  0  0  0  0  0  0
   -1.7880   -2.7699   -0.2499 C   0  0  0  0  0  0  0  0  0  0  0  0
   -2.6981   -2.7439   -1.3193 C   0  0  0  0  0  0  0  0  0  0  0  0
   -4.0673   -2.6534   -1.0740 C   0  0  0  0  0  0  0  0  0  0  0  0
   -4.5039   -2.5754    0.2562 C   0  0  0  0  0  0  0  0  0  0  0  0
   -3.6254   -2.7295    1.3372 C   0  0  0  0  0  0  0  0  0  0  0  0
   -2.2620   -2.8468    1.0718 C   0  0  0  0  0  0  0  0  0  0  0  0
   -5.8609   -2.3309    0.4681 O   0  0  0  0  0  0  0  0  0  0  0  0
   -6.1253   -0.9970    0.9958 C   0  0  0  0  0  0  0  0  0  0  0  0
   -5.7416    0.0699   -0.0354 C   0  0  0  0  0  0  0  0  0  0  0  0
   -5.3809    1.4131    0.5923 C   0  0  0  0  0  0  0  0  0  0  0  0
   -4.1902    1.3541    1.5117 C   0  0  0  0  0  0  0  0  0  0  0  0
   -4.2768    1.2196    2.7221 O   0  0  0  0  0  0  0  0  0  0  0  0
   -2.8706    1.4887    1.0186 N   0  0  0  0  0  0  0  0  0  0  0  0
   -2.4396    1.5711   -0.3805 C   0  0  2  0  0  0  0  0  0  0  0  0
   -1.2676    0.5948   -0.7164 C   0  0  0  0  0  0  0  0  0  0  0  0
   -0.7583    0.6782   -1.8295 O   0  0  0  0  0  0  0  0  0  0  0  0
   -0.7860   -0.2392    0.2800 N   0  0  0  0  0  0  0  0  0  0  0  0
   -1.9489    2.9886   -0.7480 C   0  0  0  0  0  0  0  0  0  0  0  0
   -3.1010    3.9278   -1.0245 C   0  0  0  0  0  0  0  0  0  0  0  0
   -4.2470    3.5733   -1.2569 O   0  0  0  0  0  0  0  0  0  0  0  0
   -2.7931    5.2851   -1.0248 N   0  0  0  0  0  0  0  0  0  0  0  0
    1.4668   -0.7815   -0.7238 C   0  0  2  0  0  0  0  0  0  0  0  0
    1.2879   -1.0086   -2.1235 O   0  0  0  0  0  0  0  0  0  0  0  0
    2.7398   -1.5872   -0.3817 C   0  0  0  0  0  0  0  0  0  0  0  0
    3.9219   -0.7916   -0.8002 N   0  0  0  0  0  0  0  0  0  0  0  0
    5.4368   -1.2300   -0.1017 S   0  0  0  0  0  0  0  0  0  0  0  0
    5.1279   -2.0522    1.0546 O   0  0  0  0  0  0  0  0  0  0  0  0
    6.2633   -1.7424   -1.1743 O   0  0  0  0  0  0  0  0  0  0  0  0
    6.0754    0.2905    0.4194 C   0  0  0  0  0  0  0  0  0  0  0  0
    5.7123    0.8098    1.6656 C   0  0  0  0  0  0  0  0  0  0  0  0
    6.2315    2.0379    2.0872 C   0  0  0  0  0  0  0  0  0  0  0  0
    7.1155    2.7408    1.2612 C   0  0  0  0  0  0  0  0  0  0  0  0
    7.4843    2.2173    0.0169 C   0  0  0  0  0  0  0  0  0  0  0  0
    6.9647    0.9893   -0.4031 C   0  0  0  0  0  0  0  0  0  0  0  0
    0.5983   -1.5299    1.1397 H   0  0  0  0  0  0  0  0  0  0  0  0
    0.2485   -3.4753   -0.1294 H   0  0  0  0  0  0  0  0  0  0  0  0
   -0.1176   -2.6112   -1.6188 H   0  0  0  0  0  0  0  0  0  0  0  0
   -2.3336   -2.7629   -2.3470 H   0  0  0  0  0  0  0  0  0  0  0  0
   -4.7916   -2.6192   -1.8857 H   0  0  0  0  0  0  0  0  0  0  0  0
   -4.0076   -2.7442    2.3560 H   0  0  0  0  0  0  0  0  0  0  0  0
   -1.5611   -2.9741    1.8953 H   0  0  0  0  0  0  0  0  0  0  0  0
   -7.2147   -1.0553    1.1708 H   0  0  0  0  0  0  0  0  0  0  0  0
   -5.5989   -0.8735    1.9593 H   0  0  0  0  0  0  0  0  0  0  0  0
   -6.5782    0.2163   -0.7508 H   0  0  0  0  0  0  0  0  0  0  0  0
   -4.9006   -0.2908   -0.6635 H   0  0  0  0  0  0  0  0  0  0  0  0
   -6.2423    1.8001    1.1846 H   0  0  0  0  0  0  0  0  0  0  0  0
   -5.2306    2.1777   -0.2141 H   0  0  0  0  0  0  0  0  0  0  0  0
   -2.1486    1.6548    1.7265 H   0  0  0  0  0  0  0  0  0  0  0  0
   -3.2966    1.2910   -1.0639 H   0  0  0  0  0  0  0  0  0  0  0  0
   -1.3880   -0.4160    1.0946 H   0  0  0  0  0  0  0  0  0  0  0  0
   -1.3179    2.9226   -1.6733 H   0  0  0  0  0  0  0  0  0  0  0  0
   -1.2768    3.3835    0.0391 H   0  0  0  0  0  0  0  0  0  0  0  0
   -1.8704    5.6501   -0.8795 H   0  0  0  0  0  0  0  0  0  0  0  0
   -3.5146    5.9593   -1.2389 H   0  0  0  0  0  0  0  0  0  0  0  0
    1.6119    0.3096   -0.5500 H   0  0  0  0  0  0  0  0  0  0  0  0
    0.5648   -0.4066   -2.4763 H   0  0  0  0  0  0  0  0  0  0  0  0
    2.6912   -2.5730   -0.9039 H   0  0  0  0  0  0  0  0  0  0  0  0
    2.8002   -1.7984    0.7119 H   0  0  0  0  0  0  0  0  0  0  0  0
    3.8968   -0.6244   -1.8197 H   0  0  0  0  0  0  0  0  0  0  0  0
    5.0319    0.2529    2.3178 H   0  0  0  0  0  0  0  0  0  0  0  0
    5.9520    2.4428    3.0585 H   0  0  0  0  0  0  0  0  0  0  0  0
    7.5218    3.6983    1.5899 H   0  0  0  0  0  0  0  0  0  0  0  0
    8.1780    2.7622   -0.6219 H   0  0  0  0  0  0  0  0  0  0  0  0
    7.2647    0.5712   -1.3711 H   0  0  0  0  0  0  0  0  0  0  0  0
  1 19  1  0  0  0  0
  1 37  1  1  0  0  0
  2  3  1  0  0  0  0
  2 38  1  0  0  0  0
  2  1  1  0  0  0  0
  3  8  2  0  0  0  0
  4  5  2  0  0  0  0
  4  3  1  0  0  0  0
  5  6  1  0  0  0  0
  6  9  1  0  0  0  0
  6  7  2  0  0  0  0
  7 42  1  0  0  0  0
  8  7  1  0  0  0  0
  8 43  1  0  0  0  0
  9 10  1  0  0  0  0
 10 44  1  0  0  0  0
 10 45  1  0  0  0  0
 11 12  1  0  0  0  0
 11 10  1  0  0  0  0
 12 48  1  0  0  0  0
 12 13  1  0  0  0  0
 13 14  2  0  0  0  0
 15 13  1  0  0  0  0
 15 50  1  0  0  0  0
 16 51  1  6  0  0  0
 16 15  1  0  0  0  0
 17 16  1  0  0  0  0
 17 19  1  0  0  0  0
 18 17  2  0  0  0  0
 19 52  1  0  0  0  0
 20 16  1  0  0  0  0
 20 54  1  0  0  0  0
 21 20  1  0  0  0  0
 22 21  2  0  0  0  0
 23 21  1  0  0  0  0
 23 55  1  0  0  0  0
 24 57  1  1  0  0  0
 24 26  1  0  0  0  0
 24  1  1  0  0  0  0
 25 24  1  0  0  0  0
 26 60  1  0  0  0  0
 27 26  1  0  0  0  0
 27 28  1  0  0  0  0
 28 31  1  0  0  0  0
 28 29  2  0  0  0  0
 30 28  2  0  0  0  0
 31 32  2  0  0  0  0
 32 33  1  0  0  0  0
 32 62  1  0  0  0  0
 33 63  1  0  0  0  0
 34 64  1  0  0  0  0
 34 33  2  0  0  0  0
 35 34  1  0  0  0  0
 36 35  2  0  0  0  0
 36 31  1  0  0  0  0
 39  2  1  0  0  0  0
 40  4  1  0  0  0  0
 41  5  1  0  0  0  0
 46 11  1  0  0  0  0
 47 11  1  0  0  0  0
 49 12  1  0  0  0  0
 53 20  1  0  0  0  0
 56 23  1  0  0  0  0
 58 25  1  0  0  0  0
 59 26  1  0  0  0  0
 61 27  1  0  0  0  0
 65 35  1  0  0  0  0
 66 36  1  0  0  0  0
M  END
