omegapdb_1gs5_18.log
 OpenBabel10161801213D
Gaussian 16 # PM6 Opt
 24 23  0  0  1  0  0  0  0  0999 V2000
    0.4561    0.5383    0.0115 C   0  0  2  0  0  0  0  0  0  0  0  0
    0.4988    2.0643   -0.0268 C   0  0  0  0  0  0  0  0  0  0  0  0
    1.3301    2.8369    0.3728 O   0  0  0  0  0  0  0  0  0  0  0  0
   -0.6573    2.5079   -0.6249 O   0  0  0  0  0  0  0  0  0  0  0  0
   -0.5410    0.0683    1.0966 C   0  0  0  0  0  0  0  0  0  0  0  0
   -1.2977   -1.1793    0.6514 C   0  0  0  0  0  0  0  0  0  0  0  0
   -2.6511   -0.9338    0.0339 C   0  0  0  0  0  0  0  0  0  0  0  0
   -3.5894   -1.6877    0.0926 O   0  0  0  0  0  0  0  0  0  0  0  0
   -2.8597    0.2323   -0.6672 O   0  0  0  0  0  0  0  0  0  0  0  0
    1.8229    0.0380    0.2474 N   0  0  0  0  0  0  0  0  0  0  0  0
    2.2096   -1.2052   -0.2869 C   0  0  0  0  0  0  0  0  0  0  0  0
    1.4063   -1.8657   -0.9220 O   0  0  0  0  0  0  0  0  0  0  0  0
    3.6257   -1.6005   -0.0076 C   0  0  0  0  0  0  0  0  0  0  0  0
    0.1130    0.1636   -1.0050 H   0  0  0  0  0  0  0  0  0  0  0  0
   -0.7165    3.5009   -0.6918 H   0  0  0  0  0  0  0  0  0  0  0  0
    0.0042   -0.1467    2.0405 H   0  0  0  0  0  0  0  0  0  0  0  0
   -1.2524    0.8796    1.3601 H   0  0  0  0  0  0  0  0  0  0  0  0
   -1.4382   -1.8706    1.5146 H   0  0  0  0  0  0  0  0  0  0  0  0
   -0.6792   -1.7867   -0.0648 H   0  0  0  0  0  0  0  0  0  0  0  0
   -2.0974    0.8575   -0.7308 H   0  0  0  0  0  0  0  0  0  0  0  0
    2.4363    0.6061    0.8285 H   0  0  0  0  0  0  0  0  0  0  0  0
    3.8234   -1.7360    1.0648 H   0  0  0  0  0  0  0  0  0  0  0  0
    3.8507   -2.5645   -0.4980 H   0  0  0  0  0  0  0  0  0  0  0  0
    4.3530   -0.8713   -0.3930 H   0  0  0  0  0  0  0  0  0  0  0  0
  1 14  1  6  0  0  0
  1 10  1  0  0  0  0
  1  5  1  0  0  0  0
  2  1  1  0  0  0  0
  2  3  2  0  0  0  0
  4  2  1  0  0  0  0
  5 17  1  0  0  0  0
  5 16  1  0  0  0  0
  6  5  1  0  0  0  0
  6 18  1  0  0  0  0
  7  8  2  0  0  0  0
  7  6  1  0  0  0  0
  9  7  1  0  0  0  0
 10 21  1  0  0  0  0
 11 13  1  0  0  0  0
 11 10  1  0  0  0  0
 12 11  2  0  0  0  0
 13 22  1  0  0  0  0
 15  4  1  0  0  0  0
 19  6  1  0  0  0  0
 20  9  1  0  0  0  0
 23 13  1  0  0  0  0
 24 13  1  0  0  0  0
M  END
