omegapdb_2byh_16.log
 OpenBabel10161801213D
Gaussian 16 # PM6 Opt
 40 42  0  0  0  0  0  0  0  0999 V2000
    6.5522   -2.5383   -0.7411 O   0  0  0  0  0  0  0  0  0  0  0  0
    6.5130   -1.4391   -0.2244 C   0  0  0  0  0  0  0  0  0  0  0  0
    7.7585   -0.8127    0.3412 C   0  0  0  0  0  0  0  0  0  0  0  0
    5.2411   -0.6707   -0.1374 C   0  0  0  0  0  0  0  0  0  0  0  0
    5.1170    0.5241    0.5869 C   0  0  0  0  0  0  0  0  0  0  0  0
    3.9022    1.2006    0.6420 C   0  0  0  0  0  0  0  0  0  0  0  0
    2.7793    0.6797   -0.0444 C   0  0  0  0  0  0  0  0  0  0  0  0
    2.8938   -0.5180   -0.7751 C   0  0  0  0  0  0  0  0  0  0  0  0
    4.1159   -1.1803   -0.8135 C   0  0  0  0  0  0  0  0  0  0  0  0
    1.5642    1.4144    0.0420 N   0  0  0  0  0  0  0  0  0  0  0  0
    0.3159    1.0518   -0.5405 C   0  0  0  0  0  0  0  0  0  0  0  0
    0.1722    0.0207   -1.1636 O   0  0  0  0  0  0  0  0  0  0  0  0
   -0.7381    2.0437   -0.2896 C   0  0  0  0  0  0  0  0  0  0  0  0
   -0.6473    3.4739   -0.3902 C   0  0  0  0  0  0  0  0  0  0  0  0
   -1.8494    4.0363   -0.1111 N   0  0  0  0  0  0  0  0  0  0  0  0
   -2.7035    3.0067    0.1681 N   0  0  0  0  0  0  0  0  0  0  0  0
   -2.0711    1.7635    0.0612 C   0  0  0  0  0  0  0  0  0  0  0  0
   -2.7673    0.5081    0.2869 C   0  0  0  0  0  0  0  0  0  0  0  0
   -3.8658    0.1484   -0.5166 C   0  0  0  0  0  0  0  0  0  0  0  0
   -4.5116   -1.0669   -0.3271 C   0  0  0  0  0  0  0  0  0  0  0  0
   -5.8547   -1.5027   -1.2841 Cl  0  0  0  0  0  0  0  0  0  0  0  0
   -4.0452   -1.9684    0.6608 C   0  0  0  0  0  0  0  0  0  0  0  0
   -4.7350   -3.1337    0.7608 O   0  0  0  0  0  0  0  0  0  0  0  0
   -2.9516   -1.6500    1.4724 C   0  0  0  0  0  0  0  0  0  0  0  0
   -2.3238   -0.4105    1.2676 C   0  0  0  0  0  0  0  0  0  0  0  0
   -1.2664   -0.0114    2.0289 O   0  0  0  0  0  0  0  0  0  0  0  0
    7.9676    0.1647   -0.1102 H   0  0  0  0  0  0  0  0  0  0  0  0
    8.6335   -1.4537    0.1495 H   0  0  0  0  0  0  0  0  0  0  0  0
    7.6908   -0.6793    1.4276 H   0  0  0  0  0  0  0  0  0  0  0  0
    5.9750    0.9362    1.1203 H   0  0  0  0  0  0  0  0  0  0  0  0
    3.8256    2.1238    1.2097 H   0  0  0  0  0  0  0  0  0  0  0  0
    2.0282   -0.9261   -1.3101 H   0  0  0  0  0  0  0  0  0  0  0  0
    4.2161   -2.1164   -1.3758 H   0  0  0  0  0  0  0  0  0  0  0  0
    1.5938    2.2633    0.6143 H   0  0  0  0  0  0  0  0  0  0  0  0
    0.2186    4.0560   -0.6659 H   0  0  0  0  0  0  0  0  0  0  0  0
   -3.6656    3.1943    0.4171 H   0  0  0  0  0  0  0  0  0  0  0  0
   -4.2077    0.8275   -1.3042 H   0  0  0  0  0  0  0  0  0  0  0  0
   -4.3545   -3.7459    1.4475 H   0  0  0  0  0  0  0  0  0  0  0  0
   -2.5905   -2.3405    2.2250 H   0  0  0  0  0  0  0  0  0  0  0  0
   -0.9527   -0.7214    2.6509 H   0  0  0  0  0  0  0  0  0  0  0  0
  1  2  2  0  0  0  0
  2  4  1  0  0  0  0
  2  3  1  0  0  0  0
  3 29  1  0  0  0  0
  4  5  2  0  0  0  0
  5  6  1  0  0  0  0
  5 30  1  0  0  0  0
  6 31  1  0  0  0  0
  7 10  1  0  0  0  0
  7  6  2  0  0  0  0
  8  7  1  0  0  0  0
  9  8  2  0  0  0  0
  9  4  1  0  0  0  0
 10 34  1  0  0  0  0
 11 13  1  0  0  0  0
 11 10  1  0  0  0  0
 12 11  2  0  0  0  0
 13 17  2  0  0  0  0
 14 13  1  0  0  0  0
 14 15  2  0  0  0  0
 15 16  1  0  0  0  0
 16 36  1  0  0  0  0
 17 16  1  0  0  0  0
 17 18  1  0  0  0  0
 18 25  2  0  0  0  0
 19 20  2  0  0  0  0
 19 18  1  0  0  0  0
 20 22  1  0  0  0  0
 21 20  1  0  0  0  0
 22 23  1  0  0  0  0
 22 24  2  0  0  0  0
 23 38  1  0  0  0  0
 24 39  1  0  0  0  0
 25 24  1  0  0  0  0
 25 26  1  0  0  0  0
 26 40  1  0  0  0  0
 27  3  1  0  0  0  0
 28  3  1  0  0  0  0
 32  8  1  0  0  0  0
 33  9  1  0  0  0  0
 35 14  1  0  0  0  0
 37 19  1  0  0  0  0
M  END
