omegapdb_1z1r_22.log
 OpenBabel10161801213D
Gaussian 16 # PM6 Opt
 66 68  0  0  1  0  0  0  0  0999 V2000
    0.2597    0.3831    1.1248 C   0  0  2  0  0  0  0  0  0  0  0  0
    0.5723   -1.0473    0.6178 C   0  0  0  0  0  0  0  0  0  0  0  0
   -0.6712   -1.7776    0.1996 C   0  0  0  0  0  0  0  0  0  0  0  0
   -1.6889   -2.0306    1.1356 C   0  0  0  0  0  0  0  0  0  0  0  0
   -2.9296   -2.5082    0.7170 C   0  0  0  0  0  0  0  0  0  0  0  0
   -3.1257   -2.7517   -0.6491 C   0  0  0  0  0  0  0  0  0  0  0  0
   -2.0895   -2.6178   -1.5842 C   0  0  0  0  0  0  0  0  0  0  0  0
   -0.8587   -2.1288   -1.1474 C   0  0  0  0  0  0  0  0  0  0  0  0
   -4.3595   -3.1457   -1.1636 O   0  0  0  0  0  0  0  0  0  0  0  0
   -5.4698   -2.2779   -0.8037 C   0  0  0  0  0  0  0  0  0  0  0  0
   -5.2578   -0.8850   -1.4065 C   0  0  0  0  0  0  0  0  0  0  0  0
   -6.0774    0.1985   -0.7087 C   0  0  0  0  0  0  0  0  0  0  0  0
   -5.7617    0.3272    0.7679 C   0  0  0  0  0  0  0  0  0  0  0  0
   -6.5416   -0.0315    1.6366 O   0  0  0  0  0  0  0  0  0  0  0  0
   -4.5714    0.9337    1.1888 N   0  0  0  0  0  0  0  0  0  0  0  0
   -3.4238    1.2879    0.3394 C   0  0  2  0  0  0  0  0  0  0  0  0
   -2.1380    1.0331    1.1721 C   0  0  0  0  0  0  0  0  0  0  0  0
   -2.1771    0.9526    2.3925 O   0  0  0  0  0  0  0  0  0  0  0  0
   -0.9508    0.9413    0.4639 N   0  0  0  0  0  0  0  0  0  0  0  0
   -3.4894    2.7723   -0.0788 C   0  0  0  0  0  0  0  0  0  0  0  0
   -2.6933    3.0072   -1.3435 C   0  0  0  0  0  0  0  0  0  0  0  0
   -2.1371    2.1181   -1.9730 O   0  0  0  0  0  0  0  0  0  0  0  0
   -2.6329    4.3188   -1.7998 N   0  0  0  0  0  0  0  0  0  0  0  0
    1.4342    1.3678    0.8691 C   0  0  2  0  0  0  0  0  0  0  0  0
    1.8459    1.3792   -0.4900 O   0  0  0  0  0  0  0  0  0  0  0  0
    2.6496    1.0772    1.8002 C   0  0  0  0  0  0  0  0  0  0  0  0
    3.9368    1.0403    1.0663 N   0  0  0  0  0  0  0  0  0  0  0  0
    4.3354   -0.5082    0.4147 S   0  0  0  0  0  0  0  0  0  0  0  0
    3.4295   -0.7413   -0.7174 O   0  0  0  0  0  0  0  0  0  0  0  0
    4.2898   -1.4544    1.5061 O   0  0  0  0  0  0  0  0  0  0  0  0
    5.9358   -0.2788   -0.1715 C   0  0  0  0  0  0  0  0  0  0  0  0
    7.0062   -0.1997    0.7262 C   0  0  0  0  0  0  0  0  0  0  0  0
    8.3067   -0.0213    0.2453 C   0  0  0  0  0  0  0  0  0  0  0  0
    8.5340    0.0717   -1.1321 C   0  0  0  0  0  0  0  0  0  0  0  0
    7.4641   -0.0144   -2.0308 C   0  0  0  0  0  0  0  0  0  0  0  0
    6.1646   -0.1917   -1.5501 C   0  0  0  0  0  0  0  0  0  0  0  0
    0.0573    0.3407    2.2344 H   0  0  0  0  0  0  0  0  0  0  0  0
    1.3022   -1.0055   -0.2308 H   0  0  0  0  0  0  0  0  0  0  0  0
    1.1029   -1.6165    1.4103 H   0  0  0  0  0  0  0  0  0  0  0  0
   -1.5238   -1.8142    2.1925 H   0  0  0  0  0  0  0  0  0  0  0  0
   -3.7313   -2.6795    1.4322 H   0  0  0  0  0  0  0  0  0  0  0  0
   -2.2637   -2.8738   -2.6267 H   0  0  0  0  0  0  0  0  0  0  0  0
   -0.0486   -1.9936   -1.8648 H   0  0  0  0  0  0  0  0  0  0  0  0
   -6.3182   -2.8204   -1.2594 H   0  0  0  0  0  0  0  0  0  0  0  0
   -5.5884   -2.2618    0.2940 H   0  0  0  0  0  0  0  0  0  0  0  0
   -4.1737   -0.6173   -1.3714 H   0  0  0  0  0  0  0  0  0  0  0  0
   -5.5053   -0.9039   -2.4875 H   0  0  0  0  0  0  0  0  0  0  0  0
   -5.9398    1.1704   -1.2232 H   0  0  0  0  0  0  0  0  0  0  0  0
   -7.1644   -0.0317   -0.7983 H   0  0  0  0  0  0  0  0  0  0  0  0
   -4.4051    0.9923    2.2086 H   0  0  0  0  0  0  0  0  0  0  0  0
   -3.4063    0.6324   -0.5871 H   0  0  0  0  0  0  0  0  0  0  0  0
   -0.9288    0.9940   -0.5643 H   0  0  0  0  0  0  0  0  0  0  0  0
   -4.5503    3.0690   -0.2324 H   0  0  0  0  0  0  0  0  0  0  0  0
   -3.1355    3.4217    0.7502 H   0  0  0  0  0  0  0  0  0  0  0  0
   -3.0280    5.0991   -1.3086 H   0  0  0  0  0  0  0  0  0  0  0  0
   -2.0936    4.5335   -2.6273 H   0  0  0  0  0  0  0  0  0  0  0  0
    1.0895    2.4214    1.0143 H   0  0  0  0  0  0  0  0  0  0  0  0
    1.9945    0.4410   -0.8465 H   0  0  0  0  0  0  0  0  0  0  0  0
    2.7211    1.8840    2.5678 H   0  0  0  0  0  0  0  0  0  0  0  0
    2.5171    0.1383    2.3867 H   0  0  0  0  0  0  0  0  0  0  0  0
    3.9777    1.8347    0.4018 H   0  0  0  0  0  0  0  0  0  0  0  0
    6.8317   -0.2817    1.8044 H   0  0  0  0  0  0  0  0  0  0  0  0
    9.1414    0.0410    0.9429 H   0  0  0  0  0  0  0  0  0  0  0  0
    9.5495    0.2093   -1.5077 H   0  0  0  0  0  0  0  0  0  0  0  0
    7.6441    0.0529   -3.1033 H   0  0  0  0  0  0  0  0  0  0  0  0
    5.3255   -0.2693   -2.2529 H   0  0  0  0  0  0  0  0  0  0  0  0
  1 37  1  1  0  0  0
  2  1  1  0  0  0  0
  2 39  1  0  0  0  0
  3  2  1  0  0  0  0
  3  4  2  0  0  0  0
  4 40  1  0  0  0  0
  5  4  1  0  0  0  0
  5 41  1  0  0  0  0
  6  5  2  0  0  0  0
  7  8  2  0  0  0  0
  7  6  1  0  0  0  0
  8  3  1  0  0  0  0
  9 10  1  0  0  0  0
  9  6  1  0  0  0  0
 10 45  1  0  0  0  0
 11 46  1  0  0  0  0
 11 10  1  0  0  0  0
 11 12  1  0  0  0  0
 12 13  1  0  0  0  0
 13 15  1  0  0  0  0
 13 14  2  0  0  0  0
 15 50  1  0  0  0  0
 16 51  1  6  0  0  0
 16 17  1  0  0  0  0
 16 15  1  0  0  0  0
 17 18  2  0  0  0  0
 19  1  1  0  0  0  0
 19 17  1  0  0  0  0
 20 16  1  0  0  0  0
 20 54  1  0  0  0  0
 21 20  1  0  0  0  0
 22 21  2  0  0  0  0
 23 21  1  0  0  0  0
 23 55  1  0  0  0  0
 24 57  1  1  0  0  0
 24  1  1  0  0  0  0
 24 26  1  0  0  0  0
 25 24  1  0  0  0  0
 26 60  1  0  0  0  0
 26 59  1  0  0  0  0
 27 26  1  0  0  0  0
 28 27  1  0  0  0  0
 28 30  2  0  0  0  0
 29 28  2  0  0  0  0
 31 28  1  0  0  0  0
 31 32  2  0  0  0  0
 32 62  1  0  0  0  0
 33 32  1  0  0  0  0
 33 63  1  0  0  0  0
 34 33  2  0  0  0  0
 35 36  2  0  0  0  0
 35 34  1  0  0  0  0
 36 31  1  0  0  0  0
 38  2  1  0  0  0  0
 42  7  1  0  0  0  0
 43  8  1  0  0  0  0
 44 10  1  0  0  0  0
 47 11  1  0  0  0  0
 48 12  1  0  0  0  0
 49 12  1  0  0  0  0
 52 19  1  0  0  0  0
 53 20  1  0  0  0  0
 56 23  1  0  0  0  0
 58 25  1  0  0  0  0
 61 27  1  0  0  0  0
 64 34  1  0  0  0  0
 65 35  1  0  0  0  0
 66 36  1  0  0  0  0
M  END
