omegapdb_1v2k_05.log
 OpenBabel10161801213D
Gaussian 16 # PM6 Opt
 61 65  0  0  0  0  0  0  0  0999 V2000
   10.0996    0.4268    0.3728 N   0  0  0  0  0  0  0  0  0  0  0  0
    9.1260    1.3749    0.3042 C   0  0  0  0  0  0  0  0  0  0  0  0
    7.8034    1.1011   -0.0560 C   0  0  0  0  0  0  0  0  0  0  0  0
    7.4408   -0.2302   -0.3796 C   0  0  0  0  0  0  0  0  0  0  0  0
    8.4505   -1.2230   -0.3011 C   0  0  0  0  0  0  0  0  0  0  0  0
    9.7442   -0.8520    0.0699 C   0  0  0  0  0  0  0  0  0  0  0  0
    6.1610   -0.5391   -0.8849 N   0  0  0  0  0  0  0  0  0  0  0  0
    5.6820   -1.9530   -0.8425 C   0  0  0  0  0  0  0  0  0  0  0  0
    4.4904   -2.1341    0.1076 C   0  0  0  0  0  0  0  0  0  0  0  0
    3.2808   -1.2942   -0.3462 C   0  0  0  0  0  0  0  0  0  0  0  0
    3.7255   -0.0718   -1.1740 C   0  0  0  0  0  0  0  0  0  0  0  0
    5.0741    0.4724   -0.6838 C   0  0  0  0  0  0  0  0  0  0  0  0
    2.5239   -0.7940    0.8887 C   0  0  0  0  0  0  0  0  0  0  0  0
    3.0921   -0.3429    1.8716 O   0  0  0  0  0  0  0  0  0  0  0  0
    1.1236   -0.9474    0.9171 N   0  0  0  0  0  0  0  0  0  0  0  0
    0.2951   -1.1526   -0.2958 C   0  0  0  0  0  0  0  0  0  0  0  0
   -0.3330    0.1744   -0.7797 C   0  0  0  0  0  0  0  0  0  0  0  0
   -1.1091    0.7866    0.3357 N   0  0  0  0  0  0  0  0  0  0  0  0
   -0.2679    1.0347    1.5433 C   0  0  0  0  0  0  0  0  0  0  0  0
    0.3637   -0.2904    2.0179 C   0  0  0  0  0  0  0  0  0  0  0  0
   -2.1708    2.0799   -0.1206 S   0  0  0  0  0  0  0  0  0  0  0  0
   -1.7040    2.5928   -1.3941 O   0  0  0  0  0  0  0  0  0  0  0  0
   -2.2707    2.9467    1.0355 O   0  0  0  0  0  0  0  0  0  0  0  0
   -3.6767    1.2614   -0.3653 C   0  0  0  0  0  0  0  0  0  0  0  0
   -4.4452    0.8728    0.7048 C   0  0  0  0  0  0  0  0  0  0  0  0
   -5.6866    0.1968    0.4942 C   0  0  0  0  0  0  0  0  0  0  0  0
   -6.1149   -0.0632   -0.8364 C   0  0  0  0  0  0  0  0  0  0  0  0
   -5.2975    0.3640   -1.9304 C   0  0  0  0  0  0  0  0  0  0  0  0
   -4.1102    1.0116   -1.6981 C   0  0  0  0  0  0  0  0  0  0  0  0
   -7.3558   -0.7433   -1.0510 C   0  0  0  0  0  0  0  0  0  0  0  0
   -8.1016   -1.1249    0.0345 C   0  0  0  0  0  0  0  0  0  0  0  0
   -7.6923   -0.8705    1.3752 C   0  0  0  0  0  0  0  0  0  0  0  0
   -6.5051   -0.2202    1.5942 C   0  0  0  0  0  0  0  0  0  0  0  0
   -9.5983   -1.9464   -0.2031 Cl  0  0  0  0  0  0  0  0  0  0  0  0
    9.4380    2.3958    0.5562 H   0  0  0  0  0  0  0  0  0  0  0  0
    7.0836    1.9108   -0.0850 H   0  0  0  0  0  0  0  0  0  0  0  0
    8.2288   -2.2610   -0.5327 H   0  0  0  0  0  0  0  0  0  0  0  0
   10.5461   -1.5969    0.1349 H   0  0  0  0  0  0  0  0  0  0  0  0
    6.5065   -2.6433   -0.5494 H   0  0  0  0  0  0  0  0  0  0  0  0
    5.3982   -2.2275   -1.8846 H   0  0  0  0  0  0  0  0  0  0  0  0
    4.7922   -1.8350    1.1388 H   0  0  0  0  0  0  0  0  0  0  0  0
    4.2135   -3.2014    0.1745 H   0  0  0  0  0  0  0  0  0  0  0  0
    2.6179   -1.9335   -0.9818 H   0  0  0  0  0  0  0  0  0  0  0  0
    3.8010   -0.3567   -2.2430 H   0  0  0  0  0  0  0  0  0  0  0  0
    2.9683    0.7347   -1.1307 H   0  0  0  0  0  0  0  0  0  0  0  0
    5.3491    1.3823   -1.2638 H   0  0  0  0  0  0  0  0  0  0  0  0
    4.9875    0.7611    0.3926 H   0  0  0  0  0  0  0  0  0  0  0  0
    0.8969   -1.6151   -1.1096 H   0  0  0  0  0  0  0  0  0  0  0  0
   -0.5128   -1.8776   -0.0352 H   0  0  0  0  0  0  0  0  0  0  0  0
   -1.0195   -0.0306   -1.6316 H   0  0  0  0  0  0  0  0  0  0  0  0
    0.4571    0.8593   -1.1649 H   0  0  0  0  0  0  0  0  0  0  0  0
    0.5314    1.7866    1.3516 H   0  0  0  0  0  0  0  0  0  0  0  0
   -0.9127    1.4562    2.3508 H   0  0  0  0  0  0  0  0  0  0  0  0
    1.0479   -0.1004    2.8802 H   0  0  0  0  0  0  0  0  0  0  0  0
   -0.4224   -0.9981    2.3621 H   0  0  0  0  0  0  0  0  0  0  0  0
   -4.1288    1.0779    1.7340 H   0  0  0  0  0  0  0  0  0  0  0  0
   -5.6393    0.1710   -2.9473 H   0  0  0  0  0  0  0  0  0  0  0  0
   -3.4873    1.3566   -2.5325 H   0  0  0  0  0  0  0  0  0  0  0  0
   -7.6874   -0.9444   -2.0700 H   0  0  0  0  0  0  0  0  0  0  0  0
   -8.3284   -1.1945    2.1999 H   0  0  0  0  0  0  0  0  0  0  0  0
   -6.1660   -0.0086    2.6100 H   0  0  0  0  0  0  0  0  0  0  0  0
  2  1  1  0  0  0  0
  2 35  1  0  0  0  0
  3  2  2  0  0  0  0
  4  5  2  0  0  0  0
  4  3  1  0  0  0  0
  5  6  1  0  0  0  0
  6 38  1  0  0  0  0
  6  1  2  0  0  0  0
  7  8  1  0  0  0  0
  7 12  1  0  0  0  0
  7  4  1  0  0  0  0
  8 39  1  0  0  0  0
  8  9  1  0  0  0  0
  9 42  1  0  0  0  0
  9 41  1  0  0  0  0
 10  9  1  0  0  0  0
 10 13  1  0  0  0  0
 11 45  1  0  0  0  0
 11 12  1  0  0  0  0
 11 10  1  0  0  0  0
 12 47  1  0  0  0  0
 13 15  1  0  0  0  0
 13 14  2  0  0  0  0
 15 20  1  0  0  0  0
 16 49  1  0  0  0  0
 16 15  1  0  0  0  0
 17 16  1  0  0  0  0
 17 18  1  0  0  0  0
 18 19  1  0  0  0  0
 19 20  1  0  0  0  0
 19 53  1  0  0  0  0
 20 55  1  0  0  0  0
 20 54  1  0  0  0  0
 21 18  1  0  0  0  0
 21 23  2  0  0  0  0
 22 21  2  0  0  0  0
 24 21  1  0  0  0  0
 24 25  2  0  0  0  0
 25 56  1  0  0  0  0
 26 25  1  0  0  0  0
 26 33  2  0  0  0  0
 27 26  1  0  0  0  0
 28 29  2  0  0  0  0
 28 27  1  0  0  0  0
 29 24  1  0  0  0  0
 30 27  2  0  0  0  0
 30 31  1  0  0  0  0
 31 32  2  0  0  0  0
 32 33  1  0  0  0  0
 32 60  1  0  0  0  0
 33 61  1  0  0  0  0
 34 31  1  0  0  0  0
 36  3  1  0  0  0  0
 37  5  1  0  0  0  0
 40  8  1  0  0  0  0
 43 10  1  0  0  0  0
 44 11  1  0  0  0  0
 46 12  1  0  0  0  0
 48 16  1  0  0  0  0
 50 17  1  0  0  0  0
 51 17  1  0  0  0  0
 52 19  1  0  0  0  0
 57 28  1  0  0  0  0
 58 29  1  0  0  0  0
 59 30  1  0  0  0  0
M  END
