omegapdb_1qxw_32.log
 OpenBabel10161801213D
Gaussian 16 # PM6 Opt
 36 36  0  0  1  0  0  0  0  0999 V2000
    4.1543   -1.2595    0.4354 C   0  0  0  0  0  0  0  0  0  0  0  0
    3.0415   -2.0384   -0.2366 C   0  0  0  0  0  0  0  0  0  0  0  0
    2.7707   -0.6367    0.2994 C   0  0  0  0  0  0  0  0  0  0  0  0
    2.6416    0.4479   -0.6884 N   0  0  0  0  0  0  0  0  0  0  0  0
    1.2632    0.6058   -1.2047 C   0  0  0  0  0  0  0  0  0  0  0  0
    0.2439    1.2206   -0.2142 C   0  0  0  0  0  0  0  0  0  0  0  0
   -0.3290    0.2686    0.8745 C   0  0  1  0  0  0  0  0  0  0  0  0
   -1.2567    1.0733    1.7155 N   0  0  0  0  0  0  0  0  0  0  0  0
   -0.9247   -1.0321    0.3007 C   0  0  0  0  0  0  0  0  0  0  0  0
   -2.2104   -0.8524   -0.5150 C   0  0  0  0  0  0  0  0  0  0  0  0
   -3.4799   -1.1553    0.2927 C   0  0  0  0  0  0  0  0  0  0  0  0
   -4.7402   -0.9297   -0.5401 C   0  0  0  0  0  0  0  0  0  0  0  0
    0.9042    2.3371    0.3691 O   0  0  0  0  0  0  0  0  0  0  0  0
   -0.8632    1.7585   -0.9438 O   0  0  0  0  0  0  0  0  0  0  0  0
    4.5116   -1.5568    1.4171 H   0  0  0  0  0  0  0  0  0  0  0  0
    4.9707   -0.8744   -0.1760 H   0  0  0  0  0  0  0  0  0  0  0  0
    2.6030   -2.8973    0.2616 H   0  0  0  0  0  0  0  0  0  0  0  0
    3.0868   -2.1911   -1.3147 H   0  0  0  0  0  0  0  0  0  0  0  0
    2.1476   -0.5382    1.2061 H   0  0  0  0  0  0  0  0  0  0  0  0
    2.9577    1.3362   -0.2696 H   0  0  0  0  0  0  0  0  0  0  0  0
    1.3280    1.2642   -2.1034 H   0  0  0  0  0  0  0  0  0  0  0  0
    0.8772   -0.3718   -1.5717 H   0  0  0  0  0  0  0  0  0  0  0  0
    0.5490   -0.0171    1.5307 H   0  0  0  0  0  0  0  0  0  0  0  0
   -1.6749    0.4919    2.4370 H   0  0  0  0  0  0  0  0  0  0  0  0
   -2.0231    1.4321    1.1406 H   0  0  0  0  0  0  0  0  0  0  0  0
   -0.1565   -1.5232   -0.3340 H   0  0  0  0  0  0  0  0  0  0  0  0
   -1.0980   -1.7415    1.1337 H   0  0  0  0  0  0  0  0  0  0  0  0
   -2.1765   -1.5131   -1.4032 H   0  0  0  0  0  0  0  0  0  0  0  0
   -2.2610    0.1784   -0.9316 H   0  0  0  0  0  0  0  0  0  0  0  0
   -3.4556   -2.2026    0.6536 H   0  0  0  0  0  0  0  0  0  0  0  0
   -3.5188   -0.5244    1.2004 H   0  0  0  0  0  0  0  0  0  0  0  0
   -5.6442   -1.1434    0.0408 H   0  0  0  0  0  0  0  0  0  0  0  0
   -4.7598   -1.5745   -1.4263 H   0  0  0  0  0  0  0  0  0  0  0  0
   -4.8120    0.1066   -0.8909 H   0  0  0  0  0  0  0  0  0  0  0  0
    0.4253    2.6648    1.1729 H   0  0  0  0  0  0  0  0  0  0  0  0
   -0.6356    2.6365   -1.3179 H   0  0  0  0  0  0  0  0  0  0  0  0
  1 15  1  0  0  0  0
  2 17  1  0  0  0  0
  2  3  1  0  0  0  0
  2  1  1  0  0  0  0
  3  1  1  0  0  0  0
  3 19  1  0  0  0  0
  4 20  1  0  0  0  0
  4  3  1  0  0  0  0
  5  4  1  0  0  0  0
  5  6  1  0  0  0  0
  6 13  1  0  0  0  0
  6  7  1  0  0  0  0
  7 23  1  1  0  0  0
  7  8  1  0  0  0  0
  8 24  1  0  0  0  0
  9  7  1  0  0  0  0
  9 27  1  0  0  0  0
 10 11  1  0  0  0  0
 10  9  1  0  0  0  0
 11 30  1  0  0  0  0
 11 31  1  0  0  0  0
 12 32  1  0  0  0  0
 12 11  1  0  0  0  0
 13 35  1  0  0  0  0
 14  6  1  0  0  0  0
 16  1  1  0  0  0  0
 18  2  1  0  0  0  0
 21  5  1  0  0  0  0
 22  5  1  0  0  0  0
 25  8  1  0  0  0  0
 26  9  1  0  0  0  0
 28 10  1  0  0  0  0
 29 10  1  0  0  0  0
 33 12  1  0  0  0  0
 34 12  1  0  0  0  0
 36 14  1  0  0  0  0
M  END
