omegapdb_1v2k_12.log
 OpenBabel10161801213D
Gaussian 16 # PM6 Opt Geom=check
 61 65  0  0  0  0  0  0  0  0999 V2000
   -4.9135    4.2632   -1.4807 N   0  0  0  0  0  0  0  0  0  0  0  0
   -5.6993    3.2771   -1.9938 C   0  0  0  0  0  0  0  0  0  0  0  0
   -6.1334    2.1751   -1.2526 C   0  0  0  0  0  0  0  0  0  0  0  0
   -5.7576    2.0672    0.1084 C   0  0  0  0  0  0  0  0  0  0  0  0
   -4.9381    3.0899    0.6446 C   0  0  0  0  0  0  0  0  0  0  0  0
   -4.5536    4.1556   -0.1733 C   0  0  0  0  0  0  0  0  0  0  0  0
   -6.2868    1.0443    0.9366 N   0  0  0  0  0  0  0  0  0  0  0  0
   -6.7934   -0.1945    0.2755 C   0  0  0  0  0  0  0  0  0  0  0  0
   -5.6681   -1.1460   -0.1715 C   0  0  0  0  0  0  0  0  0  0  0  0
   -4.3520   -0.8623    0.5749 C   0  0  0  0  0  0  0  0  0  0  0  0
   -4.6078   -0.5070    2.0490 C   0  0  0  0  0  0  0  0  0  0  0  0
   -5.5529    0.7042    2.1929 C   0  0  0  0  0  0  0  0  0  0  0  0
   -3.4612   -2.1066    0.5167 C   0  0  0  0  0  0  0  0  0  0  0  0
   -3.9016   -3.2458    0.5931 O   0  0  0  0  0  0  0  0  0  0  0  0
   -2.0851   -1.9201    0.3840 N   0  0  0  0  0  0  0  0  0  0  0  0
   -1.1978   -3.1158    0.3080 C   0  0  0  0  0  0  0  0  0  0  0  0
    0.2226   -2.7571    0.7721 C   0  0  0  0  0  0  0  0  0  0  0  0
    0.8424   -1.6644   -0.0292 N   0  0  0  0  0  0  0  0  0  0  0  0
   -0.1463   -0.6781   -0.5604 C   0  0  0  0  0  0  0  0  0  0  0  0
   -1.4078   -0.6019    0.3200 C   0  0  0  0  0  0  0  0  0  0  0  0
    2.0490   -2.1524   -1.1804 S   0  0  0  0  0  0  0  0  0  0  0  0
    1.5025   -1.9603   -2.5096 O   0  0  0  0  0  0  0  0  0  0  0  0
    2.5047   -3.4624   -0.7558 O   0  0  0  0  0  0  0  0  0  0  0  0
    3.3038   -0.9886   -0.9169 C   0  0  0  0  0  0  0  0  0  0  0  0
    4.1613   -1.1125    0.1489 C   0  0  0  0  0  0  0  0  0  0  0  0
    5.1934   -0.1469    0.3606 C   0  0  0  0  0  0  0  0  0  0  0  0
    5.3210    0.9388   -0.5486 C   0  0  0  0  0  0  0  0  0  0  0  0
    4.4196    1.0339   -1.6557 C   0  0  0  0  0  0  0  0  0  0  0  0
    3.4383    0.0914   -1.8346 C   0  0  0  0  0  0  0  0  0  0  0  0
    6.3510    1.9099   -0.3372 C   0  0  0  0  0  0  0  0  0  0  0  0
    7.1907    1.7658    0.7370 C   0  0  0  0  0  0  0  0  0  0  0  0
    7.0822    0.6835    1.6570 C   0  0  0  0  0  0  0  0  0  0  0  0
    6.0990   -0.2532    1.4661 C   0  0  0  0  0  0  0  0  0  0  0  0
    8.4369    2.9257    1.0094 Cl  0  0  0  0  0  0  0  0  0  0  0  0
   -5.9790    3.3915   -3.0484 H   0  0  0  0  0  0  0  0  0  0  0  0
   -6.7635    1.4231   -1.7195 H   0  0  0  0  0  0  0  0  0  0  0  0
   -4.6262    3.0628    1.6858 H   0  0  0  0  0  0  0  0  0  0  0  0
   -3.9274    4.9668    0.2172 H   0  0  0  0  0  0  0  0  0  0  0  0
   -7.4580   -0.7047    1.0102 H   0  0  0  0  0  0  0  0  0  0  0  0
   -7.4405    0.0816   -0.5860 H   0  0  0  0  0  0  0  0  0  0  0  0
   -5.9795   -2.2000    0.0033 H   0  0  0  0  0  0  0  0  0  0  0  0
   -5.4982   -1.0640   -1.2613 H   0  0  0  0  0  0  0  0  0  0  0  0
   -3.8450    0.0054    0.0746 H   0  0  0  0  0  0  0  0  0  0  0  0
   -3.6518   -0.3041    2.5655 H   0  0  0  0  0  0  0  0  0  0  0  0
   -5.0486   -1.3873    2.5628 H   0  0  0  0  0  0  0  0  0  0  0  0
   -6.3294    0.4872    2.9628 H   0  0  0  0  0  0  0  0  0  0  0  0
   -4.9932    1.5922    2.5635 H   0  0  0  0  0  0  0  0  0  0  0  0
   -1.6289   -3.9311    0.9381 H   0  0  0  0  0  0  0  0  0  0  0  0
   -1.1946   -3.4999   -0.7385 H   0  0  0  0  0  0  0  0  0  0  0  0
    0.2045   -2.4113    1.8329 H   0  0  0  0  0  0  0  0  0  0  0  0
    0.8658   -3.6720    0.7547 H   0  0  0  0  0  0  0  0  0  0  0  0
   -0.4410   -0.9153   -1.6139 H   0  0  0  0  0  0  0  0  0  0  0  0
    0.3521    0.3189   -0.5709 H   0  0  0  0  0  0  0  0  0  0  0  0
   -2.1064    0.1651   -0.0945 H   0  0  0  0  0  0  0  0  0  0  0  0
   -1.1350   -0.2774    1.3515 H   0  0  0  0  0  0  0  0  0  0  0  0
    4.0770   -1.9517    0.8491 H   0  0  0  0  0  0  0  0  0  0  0  0
    4.5318    1.8632   -2.3542 H   0  0  0  0  0  0  0  0  0  0  0  0
    2.7552    0.1491   -2.6910 H   0  0  0  0  0  0  0  0  0  0  0  0
    6.4515    2.7442   -1.0321 H   0  0  0  0  0  0  0  0  0  0  0  0
    7.7807    0.6185    2.4921 H   0  0  0  0  0  0  0  0  0  0  0  0
    5.9921   -1.0951    2.1524 H   0  0  0  0  0  0  0  0  0  0  0  0
  1  6  1  0  0  0  0
  2  1  2  0  0  0  0
  2  3  1  0  0  0  0
  3  4  2  0  0  0  0
  4  5  1  0  0  0  0
  4  7  1  0  0  0  0
  5 37  1  0  0  0  0
  6 38  1  0  0  0  0
  6  5  2  0  0  0  0
  7 12  1  0  0  0  0
  8  7  1  0  0  0  0
  8 39  1  0  0  0  0
  9 41  1  0  0  0  0
  9  8  1  0  0  0  0
  9 10  1  0  0  0  0
 10 11  1  0  0  0  0
 11 12  1  0  0  0  0
 11 45  1  0  0  0  0
 11 44  1  0  0  0  0
 12 47  1  0  0  0  0
 12 46  1  0  0  0  0
 13 10  1  0  0  0  0
 13 14  2  0  0  0  0
 15 13  1  0  0  0  0
 16 15  1  0  0  0  0
 16 17  1  0  0  0  0
 16 48  1  0  0  0  0
 17 50  1  0  0  0  0
 18 17  1  0  0  0  0
 19 18  1  0  0  0  0
 19 20  1  0  0  0  0
 20 15  1  0  0  0  0
 20 55  1  0  0  0  0
 21 24  1  0  0  0  0
 21 23  2  0  0  0  0
 21 18  1  0  0  0  0
 22 21  2  0  0  0  0
 24 25  2  0  0  0  0
 25 26  1  0  0  0  0
 25 56  1  0  0  0  0
 26 33  2  0  0  0  0
 27 30  2  0  0  0  0
 27 26  1  0  0  0  0
 28 27  1  0  0  0  0
 29 28  2  0  0  0  0
 29 24  1  0  0  0  0
 30 31  1  0  0  0  0
 31 34  1  0  0  0  0
 31 32  2  0  0  0  0
 32 60  1  0  0  0  0
 33 32  1  0  0  0  0
 33 61  1  0  0  0  0
 35  2  1  0  0  0  0
 36  3  1  0  0  0  0
 40  8  1  0  0  0  0
 42  9  1  0  0  0  0
 43 10  1  0  0  0  0
 49 16  1  0  0  0  0
 51 17  1  0  0  0  0
 52 19  1  0  0  0  0
 53 19  1  0  0  0  0
 54 20  1  0  0  0  0
 57 28  1  0  0  0  0
 58 29  1  0  0  0  0
 59 30  1  0  0  0  0
M  END
