omegapdb_1m5f_22.log
 OpenBabel10161801213D
Gaussian 16 # PM6 Opt
 25 25  0  0  1  0  0  0  0  0999 V2000
    2.7959   -0.8268    1.2258 O   0  0  0  0  0  0  0  0  0  0  0  0
    2.5084   -0.5201   -0.0826 C   0  0  0  0  0  0  0  0  0  0  0  0
    3.0034   -1.1370   -0.9905 O   0  0  0  0  0  0  0  0  0  0  0  0
    1.5346    0.5945   -0.1266 C   0  0  0  0  0  0  0  0  0  0  0  0
    1.7531    1.7539   -0.7605 N   0  0  0  0  0  0  0  0  0  0  0  0
    0.6321    2.5361   -0.6198 O   0  0  0  0  0  0  0  0  0  0  0  0
   -0.3208    1.8186    0.1382 C   0  0  0  0  0  0  0  0  0  0  0  0
    0.2077    0.5904    0.4718 C   0  0  0  0  0  0  0  0  0  0  0  0
   -0.3746   -0.4986    1.2866 C   0  0  0  0  0  0  0  0  0  0  0  0
   -1.1051   -1.5818    0.4648 C   0  0  2  0  0  0  0  0  0  0  0  0
   -0.1621   -2.3066   -0.4067 N   0  0  0  0  0  0  0  0  0  0  0  0
   -2.2732   -0.9704   -0.3219 C   0  0  0  0  0  0  0  0  0  0  0  0
   -2.4992   -1.0080   -1.5054 O   0  0  0  0  0  0  0  0  0  0  0  0
   -3.1611   -0.3440    0.5262 O   0  0  0  0  0  0  0  0  0  0  0  0
   -1.5810    2.5198    0.3835 C   0  0  0  0  0  0  0  0  0  0  0  0
    3.4261   -1.5992    1.2990 H   0  0  0  0  0  0  0  0  0  0  0  0
    0.4420   -0.9951    1.8709 H   0  0  0  0  0  0  0  0  0  0  0  0
   -1.0806   -0.0828    2.0404 H   0  0  0  0  0  0  0  0  0  0  0  0
   -1.5531   -2.3260    1.1875 H   0  0  0  0  0  0  0  0  0  0  0  0
    0.2672   -1.6938   -1.0990 H   0  0  0  0  0  0  0  0  0  0  0  0
   -0.6245   -3.0576   -0.9158 H   0  0  0  0  0  0  0  0  0  0  0  0
   -3.9665   -0.0028    0.0507 H   0  0  0  0  0  0  0  0  0  0  0  0
   -1.4635    3.3132    1.1428 H   0  0  0  0  0  0  0  0  0  0  0  0
   -1.9661    3.0084   -0.5284 H   0  0  0  0  0  0  0  0  0  0  0  0
   -2.3625    1.8273    0.7483 H   0  0  0  0  0  0  0  0  0  0  0  0
  1 16  1  0  0  0  0
  2  1  1  0  0  0  0
  3  2  2  0  0  0  0
  4  2  1  0  0  0  0
  4  8  1  0  0  0  0
  5  6  1  0  0  0  0
  5  4  2  0  0  0  0
  6  7  1  0  0  0  0
  7 15  1  0  0  0  0
  7  8  2  0  0  0  0
  8  9  1  0  0  0  0
  9 17  1  0  0  0  0
  9 18  1  0  0  0  0
 10 19  1  1  0  0  0
 10  9  1  0  0  0  0
 11 10  1  0  0  0  0
 12 10  1  0  0  0  0
 12 14  1  0  0  0  0
 13 12  2  0  0  0  0
 15 25  1  0  0  0  0
 15 23  1  0  0  0  0
 20 11  1  0  0  0  0
 21 11  1  0  0  0  0
 22 14  1  0  0  0  0
 24 15  1  0  0  0  0
M  END
