omegapdb_1z1r_19.log
 OpenBabel10161801213D
Gaussian 16 # PM6 Opt
 66 68  0  0  1  0  0  0  0  0999 V2000
    0.2552    0.4408   -0.0933 C   0  0  2  0  0  0  0  0  0  0  0  0
    0.6741   -0.9748   -0.5288 C   0  0  0  0  0  0  0  0  0  0  0  0
   -0.4472   -1.9568   -0.3595 C   0  0  0  0  0  0  0  0  0  0  0  0
   -1.1613   -2.4114   -1.4793 C   0  0  0  0  0  0  0  0  0  0  0  0
   -2.3155   -3.1804   -1.3198 C   0  0  0  0  0  0  0  0  0  0  0  0
   -2.7326   -3.4994   -0.0211 C   0  0  0  0  0  0  0  0  0  0  0  0
   -1.9821   -3.1364    1.1089 C   0  0  0  0  0  0  0  0  0  0  0  0
   -0.8350   -2.3678    0.9290 C   0  0  0  0  0  0  0  0  0  0  0  0
   -3.8910   -4.2296    0.2179 O   0  0  0  0  0  0  0  0  0  0  0  0
   -5.1199   -3.6274   -0.2799 C   0  0  0  0  0  0  0  0  0  0  0  0
   -5.4743   -2.3775    0.5217 C   0  0  0  0  0  0  0  0  0  0  0  0
   -4.8887   -1.0867   -0.0662 C   0  0  0  0  0  0  0  0  0  0  0  0
   -5.0385    0.0476    0.9223 C   0  0  0  0  0  0  0  0  0  0  0  0
   -5.7250    0.0082    1.9264 O   0  0  0  0  0  0  0  0  0  0  0  0
   -4.3365    1.2499    0.6924 N   0  0  0  0  0  0  0  0  0  0  0  0
   -3.4534    1.5622   -0.4351 C   0  0  2  0  0  0  0  0  0  0  0  0
   -1.9860    1.5529    0.0866 C   0  0  0  0  0  0  0  0  0  0  0  0
   -1.6020    2.2159    1.0387 O   0  0  0  0  0  0  0  0  0  0  0  0
   -1.0980    0.7696   -0.6447 N   0  0  0  0  0  0  0  0  0  0  0  0
   -3.7662    2.9160   -1.0924 C   0  0  0  0  0  0  0  0  0  0  0  0
   -4.2333    4.0572   -0.1965 C   0  0  0  0  0  0  0  0  0  0  0  0
   -5.2295    4.7067   -0.4686 O   0  0  0  0  0  0  0  0  0  0  0  0
   -3.4610    4.3791    0.9073 N   0  0  0  0  0  0  0  0  0  0  0  0
    1.2506    1.5380   -0.5674 C   0  0  2  0  0  0  0  0  0  0  0  0
    1.6180    1.3369   -1.9423 O   0  0  0  0  0  0  0  0  0  0  0  0
    2.5863    1.5394    0.2234 C   0  0  0  0  0  0  0  0  0  0  0  0
    3.7847    1.2398   -0.5910 N   0  0  0  0  0  0  0  0  0  0  0  0
    4.4203   -0.3639   -0.5151 S   0  0  0  0  0  0  0  0  0  0  0  0
    3.5683   -1.1109    0.4048 O   0  0  0  0  0  0  0  0  0  0  0  0
    4.5893   -0.8146   -1.8797 O   0  0  0  0  0  0  0  0  0  0  0  0
    5.9701   -0.1382    0.2131 C   0  0  0  0  0  0  0  0  0  0  0  0
    6.1060   -0.2160    1.6028 C   0  0  0  0  0  0  0  0  0  0  0  0
    7.3601   -0.0313    2.1920 C   0  0  0  0  0  0  0  0  0  0  0  0
    8.4761    0.2280    1.3885 C   0  0  0  0  0  0  0  0  0  0  0  0
    8.3414    0.2980   -0.0026 C   0  0  0  0  0  0  0  0  0  0  0  0
    7.0867    0.1129   -0.5908 C   0  0  0  0  0  0  0  0  0  0  0  0
    0.1939    0.4888    1.0313 H   0  0  0  0  0  0  0  0  0  0  0  0
    1.5691   -1.2971    0.0717 H   0  0  0  0  0  0  0  0  0  0  0  0
    1.0598   -0.9620   -1.5711 H   0  0  0  0  0  0  0  0  0  0  0  0
   -0.8137   -2.1692   -2.4830 H   0  0  0  0  0  0  0  0  0  0  0  0
   -2.8729   -3.5385   -2.1808 H   0  0  0  0  0  0  0  0  0  0  0  0
   -2.3108   -3.4506    2.0984 H   0  0  0  0  0  0  0  0  0  0  0  0
   -0.2423   -2.0685    1.7943 H   0  0  0  0  0  0  0  0  0  0  0  0
   -5.0354   -3.4485   -1.3628 H   0  0  0  0  0  0  0  0  0  0  0  0
   -5.8328   -4.4549   -0.0912 H   0  0  0  0  0  0  0  0  0  0  0  0
   -6.5761   -2.2785    0.6140 H   0  0  0  0  0  0  0  0  0  0  0  0
   -5.1179   -2.5071    1.5705 H   0  0  0  0  0  0  0  0  0  0  0  0
   -3.8183   -1.2425   -0.3187 H   0  0  0  0  0  0  0  0  0  0  0  0
   -5.4060   -0.8297   -1.0132 H   0  0  0  0  0  0  0  0  0  0  0  0
   -4.4339    1.9779    1.4106 H   0  0  0  0  0  0  0  0  0  0  0  0
   -3.5735    0.7760   -1.2318 H   0  0  0  0  0  0  0  0  0  0  0  0
   -1.4322    0.1573   -1.3877 H   0  0  0  0  0  0  0  0  0  0  0  0
   -2.8933    3.2699   -1.6813 H   0  0  0  0  0  0  0  0  0  0  0  0
   -4.5813    2.7663   -1.8424 H   0  0  0  0  0  0  0  0  0  0  0  0
   -2.6436    3.8466    1.2008 H   0  0  0  0  0  0  0  0  0  0  0  0
   -3.7511    5.1352    1.5110 H   0  0  0  0  0  0  0  0  0  0  0  0
    0.7634    2.5391   -0.4830 H   0  0  0  0  0  0  0  0  0  0  0  0
    0.8441    1.4733   -2.5231 H   0  0  0  0  0  0  0  0  0  0  0  0
    2.7363    2.5605    0.6538 H   0  0  0  0  0  0  0  0  0  0  0  0
    2.5206    0.8455    1.0959 H   0  0  0  0  0  0  0  0  0  0  0  0
    3.6828    1.6369   -1.5452 H   0  0  0  0  0  0  0  0  0  0  0  0
    5.2351   -0.4332    2.2305 H   0  0  0  0  0  0  0  0  0  0  0  0
    7.4681   -0.0923    3.2741 H   0  0  0  0  0  0  0  0  0  0  0  0
    9.4549    0.3730    1.8479 H   0  0  0  0  0  0  0  0  0  0  0  0
    9.2121    0.4934   -0.6271 H   0  0  0  0  0  0  0  0  0  0  0  0
    6.9843    0.1539   -1.6808 H   0  0  0  0  0  0  0  0  0  0  0  0
  1 37  1  1  0  0  0
  2  3  1  0  0  0  0
  2  1  1  0  0  0  0
  2 38  1  0  0  0  0
  3  8  2  0  0  0  0
  4  5  2  0  0  0  0
  4  3  1  0  0  0  0
  5  6  1  0  0  0  0
  6  9  1  0  0  0  0
  6  7  2  0  0  0  0
  7 42  1  0  0  0  0
  8  7  1  0  0  0  0
  8 43  1  0  0  0  0
 10 45  1  0  0  0  0
 10  9  1  0  0  0  0
 10 11  1  0  0  0  0
 11 46  1  0  0  0  0
 11 47  1  0  0  0  0
 12 11  1  0  0  0  0
 12 13  1  0  0  0  0
 13 14  2  0  0  0  0
 15 13  1  0  0  0  0
 15 50  1  0  0  0  0
 16 51  1  6  0  0  0
 16 17  1  0  0  0  0
 16 15  1  0  0  0  0
 17 18  2  0  0  0  0
 19  1  1  0  0  0  0
 19 17  1  0  0  0  0
 20 16  1  0  0  0  0
 20 21  1  0  0  0  0
 21 23  1  0  0  0  0
 22 21  2  0  0  0  0
 23 55  1  0  0  0  0
 23 56  1  0  0  0  0
 24 57  1  1  0  0  0
 24  1  1  0  0  0  0
 24 26  1  0  0  0  0
 25 24  1  0  0  0  0
 26 59  1  0  0  0  0
 26 60  1  0  0  0  0
 27 28  1  0  0  0  0
 27 26  1  0  0  0  0
 28 31  1  0  0  0  0
 28 29  2  0  0  0  0
 30 28  2  0  0  0  0
 31 32  2  0  0  0  0
 32 33  1  0  0  0  0
 32 62  1  0  0  0  0
 33 63  1  0  0  0  0
 34 64  1  0  0  0  0
 34 33  2  0  0  0  0
 35 34  1  0  0  0  0
 36 35  2  0  0  0  0
 36 31  1  0  0  0  0
 39  2  1  0  0  0  0
 40  4  1  0  0  0  0
 41  5  1  0  0  0  0
 44 10  1  0  0  0  0
 48 12  1  0  0  0  0
 49 12  1  0  0  0  0
 52 19  1  0  0  0  0
 53 20  1  0  0  0  0
 54 20  1  0  0  0  0
 58 25  1  0  0  0  0
 61 27  1  0  0  0  0
 65 35  1  0  0  0  0
 66 36  1  0  0  0  0
M  END
