omegapdb_1xom_03.log
 OpenBabel10161801213D
Gaussian 16 # PM6 Opt
 50 52  0  0  1  0  0  0  0  0999 V2000
   -5.9956   -0.4672   -0.0417 O   0  0  0  0  0  0  0  0  0  0  0  0
   -5.1201   -1.5098    0.1513 C   0  0  0  0  0  0  0  0  0  0  0  0
   -5.5486   -2.6309    0.2919 O   0  0  0  0  0  0  0  0  0  0  0  0
   -3.6801   -1.0379    0.1528 C   0  0  1  0  0  0  0  0  0  0  0  0
   -3.3268   -0.4123   -1.2083 C   0  0  0  0  0  0  0  0  0  0  0  0
   -1.8749    0.0720   -1.2211 C   0  0  0  0  0  0  0  0  0  0  0  0
   -1.5725    1.0605   -0.0613 C   0  0  2  0  0  0  0  0  0  0  0  0
   -2.0027    0.4584    1.3049 C   0  0  0  0  0  0  0  0  0  0  0  0
   -3.4529   -0.0308    1.2942 C   0  0  0  0  0  0  0  0  0  0  0  0
   -2.3714    2.2815   -0.2911 C   0  0  0  0  0  0  0  0  0  0  0  0
   -3.0187    3.2208   -0.4705 N   0  0  0  0  0  0  0  0  0  0  0  0
   -0.0778    1.3780   -0.0287 C   0  0  0  0  0  0  0  0  0  0  0  0
    0.4082    2.6721   -0.1542 C   0  0  0  0  0  0  0  0  0  0  0  0
    1.7941    2.9344   -0.1165 C   0  0  0  0  0  0  0  0  0  0  0  0
    2.6872    1.8890    0.0497 C   0  0  0  0  0  0  0  0  0  0  0  0
    4.0583    1.9703    0.1096 O   0  0  0  0  0  0  0  0  0  0  0  0
    4.6445    3.2894   -0.0204 C   0  0  0  0  0  0  0  0  0  0  0  0
    2.1932    0.5444    0.1822 C   0  0  0  0  0  0  0  0  0  0  0  0
    0.8293    0.3021    0.1414 C   0  0  0  0  0  0  0  0  0  0  0  0
    3.1860   -0.3831    0.3428 O   0  0  0  0  0  0  0  0  0  0  0  0
    2.8230   -1.7937    0.5265 C   0  0  0  0  0  0  0  0  0  0  0  0
    2.4275   -2.4304   -0.8162 C   0  0  0  0  0  0  0  0  0  0  0  0
    3.5381   -3.4330   -1.1772 C   0  0  0  0  0  0  0  0  0  0  0  0
    4.3792   -3.6473    0.0953 C   0  0  0  0  0  0  0  0  0  0  0  0
    4.1553   -2.4112    0.9789 C   0  0  0  0  0  0  0  0  0  0  0  0
   -6.9466   -0.7604   -0.0456 H   0  0  0  0  0  0  0  0  0  0  0  0
   -3.0377   -1.9418    0.3231 H   0  0  0  0  0  0  0  0  0  0  0  0
   -3.4849   -1.1466   -2.0218 H   0  0  0  0  0  0  0  0  0  0  0  0
   -4.0192    0.4311   -1.4214 H   0  0  0  0  0  0  0  0  0  0  0  0
   -1.6460    0.5583   -2.1907 H   0  0  0  0  0  0  0  0  0  0  0  0
   -1.1880   -0.7944   -1.1536 H   0  0  0  0  0  0  0  0  0  0  0  0
   -1.8641    1.2154    2.1028 H   0  0  0  0  0  0  0  0  0  0  0  0
   -1.3239   -0.3765    1.5673 H   0  0  0  0  0  0  0  0  0  0  0  0
   -3.7002   -0.4929    2.2697 H   0  0  0  0  0  0  0  0  0  0  0  0
   -4.1509    0.8269    1.1785 H   0  0  0  0  0  0  0  0  0  0  0  0
   -0.2607    3.5232   -0.2853 H   0  0  0  0  0  0  0  0  0  0  0  0
    2.1373    3.9605   -0.2188 H   0  0  0  0  0  0  0  0  0  0  0  0
    4.4076    3.7189   -0.9977 H   0  0  0  0  0  0  0  0  0  0  0  0
    4.3205    3.9345    0.8009 H   0  0  0  0  0  0  0  0  0  0  0  0
    5.7157    3.0601    0.0588 H   0  0  0  0  0  0  0  0  0  0  0  0
    0.4471   -0.7109    0.2378 H   0  0  0  0  0  0  0  0  0  0  0  0
    2.0281   -1.8508    1.2921 H   0  0  0  0  0  0  0  0  0  0  0  0
    2.3287   -1.6535   -1.5970 H   0  0  0  0  0  0  0  0  0  0  0  0
    1.4491   -2.9324   -0.7443 H   0  0  0  0  0  0  0  0  0  0  0  0
    4.1684   -3.0284   -1.9898 H   0  0  0  0  0  0  0  0  0  0  0  0
    3.1206   -4.3825   -1.5487 H   0  0  0  0  0  0  0  0  0  0  0  0
    4.0614   -4.5641    0.6223 H   0  0  0  0  0  0  0  0  0  0  0  0
    5.4467   -3.7813   -0.1459 H   0  0  0  0  0  0  0  0  0  0  0  0
    4.9675   -1.6653    0.8366 H   0  0  0  0  0  0  0  0  0  0  0  0
    4.1509   -2.6583    2.0513 H   0  0  0  0  0  0  0  0  0  0  0  0
  1  2  1  0  0  0  0
  2  4  1  0  0  0  0
  2  3  2  0  0  0  0
  4 27  1  1  0  0  0
  4  9  1  0  0  0  0
  5  4  1  0  0  0  0
  6  5  1  0  0  0  0
  6 31  1  0  0  0  0
  6  7  1  0  0  0  0
  7 10  1  6  0  0  0
  7 12  1  0  0  0  0
  7  8  1  0  0  0  0
  8 33  1  0  0  0  0
  8 32  1  0  0  0  0
  9  8  1  0  0  0  0
  9 34  1  0  0  0  0
 11 10  3  0  0  0  0
 12 19  2  0  0  0  0
 13 14  2  0  0  0  0
 13 12  1  0  0  0  0
 14 15  1  0  0  0  0
 15 16  1  0  0  0  0
 15 18  2  0  0  0  0
 17 40  1  0  0  0  0
 17 16  1  0  0  0  0
 17 39  1  0  0  0  0
 18 20  1  0  0  0  0
 19 18  1  0  0  0  0
 19 41  1  0  0  0  0
 20 21  1  0  0  0  0
 21 25  1  0  0  0  0
 21 42  1  0  0  0  0
 22 44  1  0  0  0  0
 22 21  1  0  0  0  0
 23 22  1  0  0  0  0
 23 24  1  0  0  0  0
 24 47  1  0  0  0  0
 24 25  1  0  0  0  0
 25 50  1  0  0  0  0
 26  1  1  0  0  0  0
 28  5  1  0  0  0  0
 29  5  1  0  0  0  0
 30  6  1  0  0  0  0
 35  9  1  0  0  0  0
 36 13  1  0  0  0  0
 37 14  1  0  0  0  0
 38 17  1  0  0  0  0
 43 22  1  0  0  0  0
 45 23  1  0  0  0  0
 46 23  1  0  0  0  0
 48 24  1  0  0  0  0
 49 25  1  0  0  0  0
M  END
