omegapdb_1xom_13.log
 OpenBabel10161801213D
Gaussian 16 # PM6 Opt
 50 52  0  0  1  0  0  0  0  0999 V2000
   -5.3714   -2.9432   -0.0736 O   0  0  0  0  0  0  0  0  0  0  0  0
   -5.0288   -1.6100   -0.1657 C   0  0  0  0  0  0  0  0  0  0  0  0
   -5.8099   -0.8271   -0.6479 O   0  0  0  0  0  0  0  0  0  0  0  0
   -3.6353   -1.4109    0.3965 C   0  0  1  0  0  0  0  0  0  0  0  0
   -2.6605   -1.1471   -0.7688 C   0  0  0  0  0  0  0  0  0  0  0  0
   -2.5591    0.3428   -1.0992 C   0  0  0  0  0  0  0  0  0  0  0  0
   -2.0000    1.1663    0.0981 C   0  0  2  0  0  0  0  0  0  0  0  0
   -2.3236    0.4818    1.4580 C   0  0  0  0  0  0  0  0  0  0  0  0
   -3.6650   -0.2511    1.4129 C   0  0  0  0  0  0  0  0  0  0  0  0
   -2.6895    2.4733    0.0773 C   0  0  0  0  0  0  0  0  0  0  0  0
   -3.2507    3.4824    0.0672 N   0  0  0  0  0  0  0  0  0  0  0  0
   -0.4873    1.3477   -0.0168 C   0  0  0  0  0  0  0  0  0  0  0  0
    0.1247    2.5954    0.1089 C   0  0  0  0  0  0  0  0  0  0  0  0
    1.5184    2.7232    0.0093 C   0  0  0  0  0  0  0  0  0  0  0  0
    2.3122    1.6015   -0.2165 C   0  0  0  0  0  0  0  0  0  0  0  0
    3.6900    1.6171   -0.3429 O   0  0  0  0  0  0  0  0  0  0  0  0
    4.3618    2.8900   -0.1796 C   0  0  0  0  0  0  0  0  0  0  0  0
    1.7008    0.3186   -0.3356 C   0  0  0  0  0  0  0  0  0  0  0  0
    0.3110    0.2103   -0.2300 C   0  0  0  0  0  0  0  0  0  0  0  0
    2.3084   -0.8812   -0.5924 O   0  0  0  0  0  0  0  0  0  0  0  0
    3.7651   -1.0225   -0.4616 C   0  0  0  0  0  0  0  0  0  0  0  0
    4.0054   -2.4298   -1.0301 C   0  0  0  0  0  0  0  0  0  0  0  0
    4.8908   -3.1599   -0.0088 C   0  0  0  0  0  0  0  0  0  0  0  0
    4.7059   -2.4326    1.3371 C   0  0  0  0  0  0  0  0  0  0  0  0
    4.1772   -1.0240    1.0185 C   0  0  0  0  0  0  0  0  0  0  0  0
   -6.2754   -3.1384   -0.4362 H   0  0  0  0  0  0  0  0  0  0  0  0
   -3.3210   -2.3531    0.9174 H   0  0  0  0  0  0  0  0  0  0  0  0
   -1.6535   -1.5389   -0.4963 H   0  0  0  0  0  0  0  0  0  0  0  0
   -2.9629   -1.7158   -1.6700 H   0  0  0  0  0  0  0  0  0  0  0  0
   -1.9219    0.4981   -1.9914 H   0  0  0  0  0  0  0  0  0  0  0  0
   -3.5673    0.7173   -1.3833 H   0  0  0  0  0  0  0  0  0  0  0  0
   -1.5129   -0.2274    1.7203 H   0  0  0  0  0  0  0  0  0  0  0  0
   -2.3254    1.2349    2.2702 H   0  0  0  0  0  0  0  0  0  0  0  0
   -4.4710    0.4699    1.1502 H   0  0  0  0  0  0  0  0  0  0  0  0
   -3.9219   -0.6381    2.4173 H   0  0  0  0  0  0  0  0  0  0  0  0
   -0.4608    3.4982    0.2845 H   0  0  0  0  0  0  0  0  0  0  0  0
    1.9621    3.7115    0.1050 H   0  0  0  0  0  0  0  0  0  0  0  0
    4.0434    3.5900   -0.9577 H   0  0  0  0  0  0  0  0  0  0  0  0
    4.1889    3.2878    0.8243 H   0  0  0  0  0  0  0  0  0  0  0  0
    5.4127    2.6039   -0.3156 H   0  0  0  0  0  0  0  0  0  0  0  0
   -0.1402   -0.7828   -0.3240 H   0  0  0  0  0  0  0  0  0  0  0  0
    4.2419   -0.2170   -1.0551 H   0  0  0  0  0  0  0  0  0  0  0  0
    3.0312   -2.9462   -1.1565 H   0  0  0  0  0  0  0  0  0  0  0  0
    4.4653   -2.3937   -2.0296 H   0  0  0  0  0  0  0  0  0  0  0  0
    5.9489   -3.1301   -0.3234 H   0  0  0  0  0  0  0  0  0  0  0  0
    4.6194   -4.2254    0.0694 H   0  0  0  0  0  0  0  0  0  0  0  0
    3.9860   -2.9779    1.9728 H   0  0  0  0  0  0  0  0  0  0  0  0
    5.6508   -2.3903    1.9022 H   0  0  0  0  0  0  0  0  0  0  0  0
    3.3151   -0.7653    1.6593 H   0  0  0  0  0  0  0  0  0  0  0  0
    4.9406   -0.2501    1.2070 H   0  0  0  0  0  0  0  0  0  0  0  0
  2  1  1  0  0  0  0
  2  4  1  0  0  0  0
  3  2  2  0  0  0  0
  4 27  1  1  0  0  0
  4  9  1  0  0  0  0
  5 28  1  0  0  0  0
  5  4  1  0  0  0  0
  6  5  1  0  0  0  0
  6  7  1  0  0  0  0
  7 12  1  6  0  0  0
  7  8  1  0  0  0  0
  8 32  1  0  0  0  0
  8 33  1  0  0  0  0
  9  8  1  0  0  0  0
  9 35  1  0  0  0  0
 10  7  1  0  0  0  0
 11 10  3  0  0  0  0
 12 13  2  0  0  0  0
 13 36  1  0  0  0  0
 14 37  1  0  0  0  0
 14 13  1  0  0  0  0
 15 14  2  0  0  0  0
 16 15  1  0  0  0  0
 16 17  1  0  0  0  0
 17 39  1  0  0  0  0
 18 19  2  0  0  0  0
 18 15  1  0  0  0  0
 19 12  1  0  0  0  0
 20 21  1  0  0  0  0
 20 18  1  0  0  0  0
 21 25  1  0  0  0  0
 22 21  1  0  0  0  0
 22 23  1  0  0  0  0
 23 46  1  0  0  0  0
 23 24  1  0  0  0  0
 24 48  1  0  0  0  0
 24 47  1  0  0  0  0
 25 50  1  0  0  0  0
 25 24  1  0  0  0  0
 25 49  1  0  0  0  0
 26  1  1  0  0  0  0
 29  5  1  0  0  0  0
 30  6  1  0  0  0  0
 31  6  1  0  0  0  0
 34  9  1  0  0  0  0
 38 17  1  0  0  0  0
 40 17  1  0  0  0  0
 41 19  1  0  0  0  0
 42 21  1  0  0  0  0
 43 22  1  0  0  0  0
 44 22  1  0  0  0  0
 45 23  1  0  0  0  0
M  END
