omegapdb_1qxw_17.log
 OpenBabel10161801213D
Gaussian 16 # PM6 Opt
 36 36  0  0  1  0  0  0  0  0999 V2000
    4.1655   -0.7147   -1.1996 C   0  0  0  0  0  0  0  0  0  0  0  0
    4.7491   -0.8903    0.1888 C   0  0  0  0  0  0  0  0  0  0  0  0
    3.2684   -1.1530   -0.0393 C   0  0  0  0  0  0  0  0  0  0  0  0
    2.2920   -0.2550    0.5787 N   0  0  0  0  0  0  0  0  0  0  0  0
    1.0407   -0.1580   -0.2349 C   0  0  0  0  0  0  0  0  0  0  0  0
    0.0809    0.8383    0.4526 C   0  0  0  0  0  0  0  0  0  0  0  0
   -1.2995    1.0978   -0.2280 C   0  0  1  0  0  0  0  0  0  0  0  0
   -1.1542    2.2833   -1.1138 N   0  0  0  0  0  0  0  0  0  0  0  0
   -1.8780   -0.1418   -0.9377 C   0  0  0  0  0  0  0  0  0  0  0  0
   -2.3123   -1.2271    0.0572 C   0  0  0  0  0  0  0  0  0  0  0  0
   -3.7158   -0.9930    0.6336 C   0  0  0  0  0  0  0  0  0  0  0  0
   -4.8300   -1.2912   -0.3672 C   0  0  0  0  0  0  0  0  0  0  0  0
   -0.2759    0.4143    1.7629 O   0  0  0  0  0  0  0  0  0  0  0  0
    0.8528    2.0233    0.6097 O   0  0  0  0  0  0  0  0  0  0  0  0
    4.0696    0.2858   -1.6125 H   0  0  0  0  0  0  0  0  0  0  0  0
    4.4168   -1.4240   -1.9824 H   0  0  0  0  0  0  0  0  0  0  0  0
    5.4103   -1.7290    0.3950 H   0  0  0  0  0  0  0  0  0  0  0  0
    5.0689   -0.0148    0.7505 H   0  0  0  0  0  0  0  0  0  0  0  0
    2.9103   -2.1939   -0.0240 H   0  0  0  0  0  0  0  0  0  0  0  0
    2.6823    0.6917    0.7126 H   0  0  0  0  0  0  0  0  0  0  0  0
    0.5669   -1.1648   -0.2679 H   0  0  0  0  0  0  0  0  0  0  0  0
    1.2211    0.1657   -1.2819 H   0  0  0  0  0  0  0  0  0  0  0  0
   -2.0082    1.3896    0.6032 H   0  0  0  0  0  0  0  0  0  0  0  0
   -2.0502    2.5479   -1.5123 H   0  0  0  0  0  0  0  0  0  0  0  0
   -0.5190    2.0971   -1.8844 H   0  0  0  0  0  0  0  0  0  0  0  0
   -1.1532   -0.5589   -1.6599 H   0  0  0  0  0  0  0  0  0  0  0  0
   -2.7517    0.1621   -1.5498 H   0  0  0  0  0  0  0  0  0  0  0  0
   -1.5844   -1.2737    0.8991 H   0  0  0  0  0  0  0  0  0  0  0  0
   -2.2713   -2.2172   -0.4345 H   0  0  0  0  0  0  0  0  0  0  0  0
   -3.8037    0.0498    0.9973 H   0  0  0  0  0  0  0  0  0  0  0  0
   -3.8465   -1.6299    1.5319 H   0  0  0  0  0  0  0  0  0  0  0  0
   -4.8069   -2.3366   -0.6954 H   0  0  0  0  0  0  0  0  0  0  0  0
   -5.8165   -1.1076    0.0731 H   0  0  0  0  0  0  0  0  0  0  0  0
   -4.7479   -0.6657   -1.2628 H   0  0  0  0  0  0  0  0  0  0  0  0
    0.5282    0.1996    2.2962 H   0  0  0  0  0  0  0  0  0  0  0  0
    0.2910    2.8251    0.7208 H   0  0  0  0  0  0  0  0  0  0  0  0
  1  3  1  0  0  0  0
  1  2  1  0  0  0  0
  2 17  1  0  0  0  0
  2 18  1  0  0  0  0
  3 19  1  0  0  0  0
  3  2  1  0  0  0  0
  3  4  1  0  0  0  0
  4 20  1  0  0  0  0
  5  6  1  0  0  0  0
  5  4  1  0  0  0  0
  6 14  1  0  0  0  0
  6 13  1  0  0  0  0
  7  6  1  0  0  0  0
  7 23  1  1  0  0  0
  8  7  1  0  0  0  0
  9  7  1  0  0  0  0
  9 10  1  0  0  0  0
 10 11  1  0  0  0  0
 10 28  1  0  0  0  0
 11 30  1  0  0  0  0
 11 31  1  0  0  0  0
 12 33  1  0  0  0  0
 12 11  1  0  0  0  0
 13 35  1  0  0  0  0
 14 36  1  0  0  0  0
 15  1  1  0  0  0  0
 16  1  1  0  0  0  0
 21  5  1  0  0  0  0
 22  5  1  0  0  0  0
 24  8  1  0  0  0  0
 25  8  1  0  0  0  0
 26  9  1  0  0  0  0
 27  9  1  0  0  0  0
 29 10  1  0  0  0  0
 32 12  1  0  0  0  0
 34 12  1  0  0  0  0
M  END
