omegapdb_1m5f_06.log
 OpenBabel10161801213D
Gaussian 16 # PM6 Opt
 25 25  0  0  1  0  0  0  0  0999 V2000
   -2.4377   -2.5276    0.6611 O   0  0  0  0  0  0  0  0  0  0  0  0
   -1.6383   -1.8541   -0.2201 C   0  0  0  0  0  0  0  0  0  0  0  0
   -0.9208   -2.4548   -0.9877 O   0  0  0  0  0  0  0  0  0  0  0  0
   -1.7705   -0.3916   -0.0674 C   0  0  0  0  0  0  0  0  0  0  0  0
   -2.8828    0.2555    0.3105 N   0  0  0  0  0  0  0  0  0  0  0  0
   -2.6166    1.6000    0.3082 O   0  0  0  0  0  0  0  0  0  0  0  0
   -1.2714    1.7938   -0.0894 C   0  0  0  0  0  0  0  0  0  0  0  0
   -0.7033    0.5634   -0.3392 C   0  0  0  0  0  0  0  0  0  0  0  0
    0.6686    0.2335   -0.7876 C   0  0  0  0  0  0  0  0  0  0  0  0
    1.6989    0.4457    0.3462 C   0  0  2  0  0  0  0  0  0  0  0  0
    2.1947    1.8390    0.3526 N   0  0  0  0  0  0  0  0  0  0  0  0
    2.8490   -0.5550    0.1517 C   0  0  0  0  0  0  0  0  0  0  0  0
    3.9320   -0.3743   -0.3510 O   0  0  0  0  0  0  0  0  0  0  0  0
    2.5077   -1.7733    0.6706 O   0  0  0  0  0  0  0  0  0  0  0  0
   -0.8372    3.1879   -0.1365 C   0  0  0  0  0  0  0  0  0  0  0  0
   -2.3576   -3.5195    0.5603 H   0  0  0  0  0  0  0  0  0  0  0  0
    0.9368    0.8448   -1.6778 H   0  0  0  0  0  0  0  0  0  0  0  0
    0.6990   -0.8286   -1.1418 H   0  0  0  0  0  0  0  0  0  0  0  0
    1.2102    0.2322    1.3396 H   0  0  0  0  0  0  0  0  0  0  0  0
    2.7094    2.0535   -0.5012 H   0  0  0  0  0  0  0  0  0  0  0  0
    2.8262    2.0016    1.1345 H   0  0  0  0  0  0  0  0  0  0  0  0
    3.2137   -2.4658    0.5441 H   0  0  0  0  0  0  0  0  0  0  0  0
    0.1885    3.2925    0.2771 H   0  0  0  0  0  0  0  0  0  0  0  0
   -0.8033    3.5696   -1.1710 H   0  0  0  0  0  0  0  0  0  0  0  0
   -1.4982    3.8558    0.4389 H   0  0  0  0  0  0  0  0  0  0  0  0
  2  4  1  0  0  0  0
  2  1  1  0  0  0  0
  3  2  2  0  0  0  0
  4  5  2  0  0  0  0
  6  5  1  0  0  0  0
  7  6  1  0  0  0  0
  8  7  2  0  0  0  0
  8  4  1  0  0  0  0
  9  8  1  0  0  0  0
  9 10  1  0  0  0  0
 10 11  1  0  0  0  0
 10 19  1  1  0  0  0
 11 21  1  0  0  0  0
 12 10  1  0  0  0  0
 12 14  1  0  0  0  0
 13 12  2  0  0  0  0
 15  7  1  0  0  0  0
 15 23  1  0  0  0  0
 15 25  1  0  0  0  0
 16  1  1  0  0  0  0
 17  9  1  0  0  0  0
 18  9  1  0  0  0  0
 20 11  1  0  0  0  0
 22 14  1  0  0  0  0
 24 15  1  0  0  0  0
M  END
