omegapdb_1z1r_23.log
 OpenBabel10161801213D
Gaussian 16 # PM6 Opt
 66 68  0  0  1  0  0  0  0  0999 V2000
   -0.2526   -0.2379    1.9751 C   0  0  2  0  0  0  0  0  0  0  0  0
   -1.0095   -1.4145    2.6394 C   0  0  0  0  0  0  0  0  0  0  0  0
   -2.0268   -2.0431    1.7290 C   0  0  0  0  0  0  0  0  0  0  0  0
   -3.3979   -1.8471    1.9629 C   0  0  0  0  0  0  0  0  0  0  0  0
   -4.3373   -2.2382    1.0086 C   0  0  0  0  0  0  0  0  0  0  0  0
   -3.8799   -2.8335   -0.1743 C   0  0  0  0  0  0  0  0  0  0  0  0
   -2.5268   -3.1412   -0.3780 C   0  0  0  0  0  0  0  0  0  0  0  0
   -1.6042   -2.7507    0.5902 C   0  0  0  0  0  0  0  0  0  0  0  0
   -4.8304   -3.1347   -1.1493 O   0  0  0  0  0  0  0  0  0  0  0  0
   -4.7540   -2.2862   -2.3310 C   0  0  0  0  0  0  0  0  0  0  0  0
   -5.1103   -0.8387   -1.9974 C   0  0  0  0  0  0  0  0  0  0  0  0
   -3.8998    0.0265   -1.6172 C   0  0  0  0  0  0  0  0  0  0  0  0
   -4.3040    1.1090   -0.6400 C   0  0  0  0  0  0  0  0  0  0  0  0
   -5.4246    1.2565   -0.1900 O   0  0  0  0  0  0  0  0  0  0  0  0
   -3.3054    1.9778   -0.1397 N   0  0  0  0  0  0  0  0  0  0  0  0
   -1.9454    2.1350   -0.6733 C   0  0  2  0  0  0  0  0  0  0  0  0
   -0.8496    1.5676    0.2818 C   0  0  0  0  0  0  0  0  0  0  0  0
    0.3007    1.9958    0.1974 O   0  0  0  0  0  0  0  0  0  0  0  0
   -1.2090    0.5550    1.1377 N   0  0  0  0  0  0  0  0  0  0  0  0
   -1.6334    3.6127   -0.9674 C   0  0  0  0  0  0  0  0  0  0  0  0
   -1.6594    4.4585    0.2963 C   0  0  0  0  0  0  0  0  0  0  0  0
   -2.6932    4.8865    0.7840 O   0  0  0  0  0  0  0  0  0  0  0  0
   -0.4232    4.7468    0.8624 N   0  0  0  0  0  0  0  0  0  0  0  0
    0.9505   -0.7106    1.1004 C   0  0  2  0  0  0  0  0  0  0  0  0
    1.2798   -2.0287    1.5524 O   0  0  0  0  0  0  0  0  0  0  0  0
    2.1990    0.1950    1.2906 C   0  0  0  0  0  0  0  0  0  0  0  0
    2.8654    0.5715    0.0266 N   0  0  0  0  0  0  0  0  0  0  0  0
    3.6430   -0.6536   -0.8884 S   0  0  0  0  0  0  0  0  0  0  0  0
    3.3159   -0.3705   -2.2705 O   0  0  0  0  0  0  0  0  0  0  0  0
    3.2603   -1.9425   -0.3089 O   0  0  0  0  0  0  0  0  0  0  0  0
    5.3234   -0.3993   -0.6060 C   0  0  0  0  0  0  0  0  0  0  0  0
    6.0284    0.5275   -1.3815 C   0  0  0  0  0  0  0  0  0  0  0  0
    7.3912    0.7362   -1.1503 C   0  0  0  0  0  0  0  0  0  0  0  0
    8.0463    0.0150   -0.1459 C   0  0  0  0  0  0  0  0  0  0  0  0
    7.3428   -0.9175    0.6248 C   0  0  0  0  0  0  0  0  0  0  0  0
    5.9804   -1.1257    0.3933 C   0  0  0  0  0  0  0  0  0  0  0  0
    0.1317    0.4352    2.7888 H   0  0  0  0  0  0  0  0  0  0  0  0
   -1.4779   -1.0666    3.5808 H   0  0  0  0  0  0  0  0  0  0  0  0
   -0.2581   -2.1840    2.9533 H   0  0  0  0  0  0  0  0  0  0  0  0
   -3.7363   -1.3676    2.8812 H   0  0  0  0  0  0  0  0  0  0  0  0
   -5.4033   -2.0707    1.1565 H   0  0  0  0  0  0  0  0  0  0  0  0
   -2.2140   -3.6745   -1.2723 H   0  0  0  0  0  0  0  0  0  0  0  0
   -0.5395   -2.9744    0.4649 H   0  0  0  0  0  0  0  0  0  0  0  0
   -3.7617   -2.3988   -2.7958 H   0  0  0  0  0  0  0  0  0  0  0  0
   -5.5240   -2.7658   -2.9668 H   0  0  0  0  0  0  0  0  0  0  0  0
   -5.6513   -0.3747   -2.8452 H   0  0  0  0  0  0  0  0  0  0  0  0
   -5.8502   -0.8385   -1.1583 H   0  0  0  0  0  0  0  0  0  0  0  0
   -3.1060   -0.6051   -1.1589 H   0  0  0  0  0  0  0  0  0  0  0  0
   -3.4501    0.4697   -2.5279 H   0  0  0  0  0  0  0  0  0  0  0  0
   -3.6372    2.7507    0.4667 H   0  0  0  0  0  0  0  0  0  0  0  0
   -1.8274    1.5558   -1.6338 H   0  0  0  0  0  0  0  0  0  0  0  0
   -2.1955    0.2786    1.2101 H   0  0  0  0  0  0  0  0  0  0  0  0
   -2.3854    4.0263   -1.6763 H   0  0  0  0  0  0  0  0  0  0  0  0
   -0.6542    3.6871   -1.4891 H   0  0  0  0  0  0  0  0  0  0  0  0
    0.4022    4.2071    0.6223 H   0  0  0  0  0  0  0  0  0  0  0  0
   -0.3867    5.2471    1.7390 H   0  0  0  0  0  0  0  0  0  0  0  0
    0.6510   -0.7787    0.0299 H   0  0  0  0  0  0  0  0  0  0  0  0
    2.0096   -2.4116    0.9662 H   0  0  0  0  0  0  0  0  0  0  0  0
    2.9209   -0.3222    1.9632 H   0  0  0  0  0  0  0  0  0  0  0  0
    1.9124    1.1463    1.8029 H   0  0  0  0  0  0  0  0  0  0  0  0
    2.2929    1.2659   -0.4915 H   0  0  0  0  0  0  0  0  0  0  0  0
    5.5198    1.0833   -2.1764 H   0  0  0  0  0  0  0  0  0  0  0  0
    7.9417    1.4573   -1.7533 H   0  0  0  0  0  0  0  0  0  0  0  0
    9.1100    0.1781    0.0350 H   0  0  0  0  0  0  0  0  0  0  0  0
    7.8561   -1.4829    1.4018 H   0  0  0  0  0  0  0  0  0  0  0  0
    5.4325   -1.8658    0.9872 H   0  0  0  0  0  0  0  0  0  0  0  0
  1  2  1  0  0  0  0
  1 37  1  1  0  0  0
  2 39  1  0  0  0  0
  2 38  1  0  0  0  0
  3  4  1  0  0  0  0
  3  2  1  0  0  0  0
  4 40  1  0  0  0  0
  5 41  1  0  0  0  0
  5  4  2  0  0  0  0
  6  5  1  0  0  0  0
  7  6  2  0  0  0  0
  7  8  1  0  0  0  0
  8  3  2  0  0  0  0
  9  6  1  0  0  0  0
 10 11  1  0  0  0  0
 10  9  1  0  0  0  0
 11 12  1  0  0  0  0
 11 47  1  0  0  0  0
 12 48  1  0  0  0  0
 12 13  1  0  0  0  0
 13 14  2  0  0  0  0
 13 15  1  0  0  0  0
 15 50  1  0  0  0  0
 16 51  1  6  0  0  0
 16 15  1  0  0  0  0
 16 17  1  0  0  0  0
 17 19  1  0  0  0  0
 18 17  2  0  0  0  0
 19 52  1  0  0  0  0
 19  1  1  0  0  0  0
 20 16  1  0  0  0  0
 20 21  1  0  0  0  0
 21 22  2  0  0  0  0
 21 23  1  0  0  0  0
 23 56  1  0  0  0  0
 24 57  1  6  0  0  0
 24 26  1  0  0  0  0
 24 25  1  0  0  0  0
 24  1  1  0  0  0  0
 26 60  1  0  0  0  0
 26 59  1  0  0  0  0
 27 26  1  0  0  0  0
 28 31  1  0  0  0  0
 28 30  2  0  0  0  0
 28 27  1  0  0  0  0
 29 28  2  0  0  0  0
 31 36  2  0  0  0  0
 32 33  2  0  0  0  0
 32 31  1  0  0  0  0
 33 34  1  0  0  0  0
 34 64  1  0  0  0  0
 34 35  2  0  0  0  0
 35 65  1  0  0  0  0
 36 35  1  0  0  0  0
 36 66  1  0  0  0  0
 42  7  1  0  0  0  0
 43  8  1  0  0  0  0
 44 10  1  0  0  0  0
 45 10  1  0  0  0  0
 46 11  1  0  0  0  0
 49 12  1  0  0  0  0
 53 20  1  0  0  0  0
 54 20  1  0  0  0  0
 55 23  1  0  0  0  0
 58 25  1  0  0  0  0
 61 27  1  0  0  0  0
 62 32  1  0  0  0  0
 63 33  1  0  0  0  0
M  END
