omegapdb_1z1r_13.log
 OpenBabel10161801213D
Gaussian 16 # PM6 Opt
 66 68  0  0  1  0  0  0  0  0999 V2000
   -0.1406   -0.4547   -0.5656 C   0  0  2  0  0  0  0  0  0  0  0  0
   -0.1317   -1.5032    0.5726 C   0  0  0  0  0  0  0  0  0  0  0  0
    1.2739   -1.9055    0.9133 C   0  0  0  0  0  0  0  0  0  0  0  0
    1.8957   -1.3904    2.0641 C   0  0  0  0  0  0  0  0  0  0  0  0
    3.2530   -1.6065    2.2928 C   0  0  0  0  0  0  0  0  0  0  0  0
    3.9818   -2.3508    1.3506 C   0  0  0  0  0  0  0  0  0  0  0  0
    3.3584   -2.9654    0.2547 C   0  0  0  0  0  0  0  0  0  0  0  0
    1.9994   -2.7340    0.0429 C   0  0  0  0  0  0  0  0  0  0  0  0
    5.3462   -2.4342    1.5879 O   0  0  0  0  0  0  0  0  0  0  0  0
    6.2096   -2.2442    0.4300 C   0  0  0  0  0  0  0  0  0  0  0  0
    6.3090   -0.7702    0.0330 C   0  0  0  0  0  0  0  0  0  0  0  0
    4.9677   -0.1662   -0.3902 C   0  0  0  0  0  0  0  0  0  0  0  0
    5.1259    0.9915   -1.3424 C   0  0  0  0  0  0  0  0  0  0  0  0
    6.0619    1.1509   -2.1051 O   0  0  0  0  0  0  0  0  0  0  0  0
    4.1061    1.9736   -1.3680 N   0  0  0  0  0  0  0  0  0  0  0  0
    2.8992    1.9493   -0.5268 C   0  0  2  0  0  0  0  0  0  0  0  0
    1.8356    0.9752   -1.1105 C   0  0  0  0  0  0  0  0  0  0  0  0
    1.9048    0.5217   -2.2412 O   0  0  0  0  0  0  0  0  0  0  0  0
    0.7963    0.6537   -0.2501 N   0  0  0  0  0  0  0  0  0  0  0  0
    2.3292    3.3773   -0.4141 C   0  0  0  0  0  0  0  0  0  0  0  0
    1.6096    3.5832    0.9026 C   0  0  0  0  0  0  0  0  0  0  0  0
    1.3916    2.6945    1.7143 O   0  0  0  0  0  0  0  0  0  0  0  0
    1.1793    4.8776    1.1681 N   0  0  0  0  0  0  0  0  0  0  0  0
   -1.5590    0.1424   -0.7809 C   0  0  2  0  0  0  0  0  0  0  0  0
   -2.0821    0.3940    0.5356 O   0  0  0  0  0  0  0  0  0  0  0  0
   -2.4836   -0.8469   -1.5293 C   0  0  0  0  0  0  0  0  0  0  0  0
   -3.7847   -0.1821   -1.7766 N   0  0  0  0  0  0  0  0  0  0  0  0
   -5.2237   -1.0281   -1.3264 S   0  0  0  0  0  0  0  0  0  0  0  0
   -4.8523   -2.4020   -1.0603 O   0  0  0  0  0  0  0  0  0  0  0  0
   -6.1819   -0.7011   -2.3626 O   0  0  0  0  0  0  0  0  0  0  0  0
   -5.6728   -0.2531    0.1504 C   0  0  0  0  0  0  0  0  0  0  0  0
   -5.0438   -0.6092    1.3480 C   0  0  0  0  0  0  0  0  0  0  0  0
   -5.4100    0.0212    2.5408 C   0  0  0  0  0  0  0  0  0  0  0  0
   -6.4101    0.9999    2.5340 C   0  0  0  0  0  0  0  0  0  0  0  0
   -7.0446    1.3502    1.3369 C   0  0  0  0  0  0  0  0  0  0  0  0
   -6.6761    0.7216    0.1440 C   0  0  0  0  0  0  0  0  0  0  0  0
    0.1983   -0.9369   -1.5272 H   0  0  0  0  0  0  0  0  0  0  0  0
   -0.7341   -2.3830    0.2699 H   0  0  0  0  0  0  0  0  0  0  0  0
   -0.6611   -1.0895    1.4610 H   0  0  0  0  0  0  0  0  0  0  0  0
    1.3211   -0.7910    2.7716 H   0  0  0  0  0  0  0  0  0  0  0  0
    3.7573   -1.1987    3.1660 H   0  0  0  0  0  0  0  0  0  0  0  0
    3.9258   -3.5991   -0.4218 H   0  0  0  0  0  0  0  0  0  0  0  0
    1.5068   -3.1841   -0.8188 H   0  0  0  0  0  0  0  0  0  0  0  0
    5.8733   -2.8866   -0.4007 H   0  0  0  0  0  0  0  0  0  0  0  0
    7.1700   -2.6240    0.8307 H   0  0  0  0  0  0  0  0  0  0  0  0
    7.0451   -0.6686   -0.7981 H   0  0  0  0  0  0  0  0  0  0  0  0
    6.7270   -0.1832    0.8762 H   0  0  0  0  0  0  0  0  0  0  0  0
    4.3414   -0.9277   -0.9166 H   0  0  0  0  0  0  0  0  0  0  0  0
    4.3887    0.1135    0.5175 H   0  0  0  0  0  0  0  0  0  0  0  0
    4.0597    2.5516   -2.2107 H   0  0  0  0  0  0  0  0  0  0  0  0
    3.1861    1.5781    0.5046 H   0  0  0  0  0  0  0  0  0  0  0  0
    0.7414    1.0355    0.7057 H   0  0  0  0  0  0  0  0  0  0  0  0
    1.6490    3.5948   -1.2655 H   0  0  0  0  0  0  0  0  0  0  0  0
    3.1612    4.1142   -0.5065 H   0  0  0  0  0  0  0  0  0  0  0  0
    0.7034    5.0758    2.0375 H   0  0  0  0  0  0  0  0  0  0  0  0
    1.3481    5.6593    0.5623 H   0  0  0  0  0  0  0  0  0  0  0  0
   -1.5006    1.1149   -1.3208 H   0  0  0  0  0  0  0  0  0  0  0  0
   -2.9556    0.8400    0.4611 H   0  0  0  0  0  0  0  0  0  0  0  0
   -2.0018   -1.1792   -2.4756 H   0  0  0  0  0  0  0  0  0  0  0  0
   -2.6195   -1.7716   -0.9151 H   0  0  0  0  0  0  0  0  0  0  0  0
   -3.7993    0.3248   -2.6705 H   0  0  0  0  0  0  0  0  0  0  0  0
   -4.2669   -1.3820    1.3584 H   0  0  0  0  0  0  0  0  0  0  0  0
   -4.9187   -0.2533    3.4740 H   0  0  0  0  0  0  0  0  0  0  0  0
   -6.6978    1.4895    3.4657 H   0  0  0  0  0  0  0  0  0  0  0  0
   -7.8273    2.1077    1.3342 H   0  0  0  0  0  0  0  0  0  0  0  0
   -7.1795    0.9875   -0.7932 H   0  0  0  0  0  0  0  0  0  0  0  0
  1 37  1  6  0  0  0
  1 19  1  0  0  0  0
  1  2  1  0  0  0  0
  2  3  1  0  0  0  0
  2 39  1  0  0  0  0
  3  4  2  0  0  0  0
  4  5  1  0  0  0  0
  4 40  1  0  0  0  0
  5 41  1  0  0  0  0
  6  9  1  0  0  0  0
  6  5  2  0  0  0  0
  7  6  1  0  0  0  0
  8  7  2  0  0  0  0
  8  3  1  0  0  0  0
 10 45  1  0  0  0  0
 10  9  1  0  0  0  0
 11 10  1  0  0  0  0
 11 47  1  0  0  0  0
 12 11  1  0  0  0  0
 12 49  1  0  0  0  0
 13 12  1  0  0  0  0
 14 13  2  0  0  0  0
 15 13  1  0  0  0  0
 15 16  1  0  0  0  0
 16 20  1  0  0  0  0
 16 51  1  1  0  0  0
 17 16  1  0  0  0  0
 17 19  1  0  0  0  0
 18 17  2  0  0  0  0
 19 52  1  0  0  0  0
 20 21  1  0  0  0  0
 21 23  1  0  0  0  0
 21 22  2  0  0  0  0
 23 55  1  0  0  0  0
 24 57  1  6  0  0  0
 24  1  1  0  0  0  0
 24 25  1  0  0  0  0
 26 60  1  0  0  0  0
 26 24  1  0  0  0  0
 27 26  1  0  0  0  0
 27 28  1  0  0  0  0
 28 29  2  0  0  0  0
 28 31  1  0  0  0  0
 30 28  2  0  0  0  0
 31 32  1  0  0  0  0
 32 62  1  0  0  0  0
 32 33  2  0  0  0  0
 33 63  1  0  0  0  0
 34 33  1  0  0  0  0
 34 64  1  0  0  0  0
 35 34  2  0  0  0  0
 36 31  2  0  0  0  0
 36 35  1  0  0  0  0
 38  2  1  0  0  0  0
 42  7  1  0  0  0  0
 43  8  1  0  0  0  0
 44 10  1  0  0  0  0
 46 11  1  0  0  0  0
 48 12  1  0  0  0  0
 50 15  1  0  0  0  0
 53 20  1  0  0  0  0
 54 20  1  0  0  0  0
 56 23  1  0  0  0  0
 58 25  1  0  0  0  0
 59 26  1  0  0  0  0
 61 27  1  0  0  0  0
 65 35  1  0  0  0  0
 66 36  1  0  0  0  0
M  END
