omegapdb_1z1r_11.log
 OpenBabel10161801213D
Gaussian 16 # PM6 Opt
 66 68  0  0  1  0  0  0  0  0999 V2000
   -0.2539   -0.6503    0.5862 C   0  0  2  0  0  0  0  0  0  0  0  0
    0.2552   -1.5715    1.7184 C   0  0  0  0  0  0  0  0  0  0  0  0
    1.6895   -1.9452    1.4758 C   0  0  0  0  0  0  0  0  0  0  0  0
    2.7176   -1.2431    2.1232 C   0  0  0  0  0  0  0  0  0  0  0  0
    4.0537   -1.4638    1.7830 C   0  0  0  0  0  0  0  0  0  0  0  0
    4.3439   -2.4053    0.7875 C   0  0  0  0  0  0  0  0  0  0  0  0
    3.3371   -3.1756    0.1805 C   0  0  0  0  0  0  0  0  0  0  0  0
    2.0114   -2.9395    0.5345 C   0  0  0  0  0  0  0  0  0  0  0  0
    5.6341   -2.6880    0.3649 O   0  0  0  0  0  0  0  0  0  0  0  0
    6.4940   -1.5495    0.0780 C   0  0  0  0  0  0  0  0  0  0  0  0
    6.0171   -0.8291   -1.1816 C   0  0  0  0  0  0  0  0  0  0  0  0
    5.1860    0.4247   -0.8876 C   0  0  0  0  0  0  0  0  0  0  0  0
    4.4555    0.8693   -2.1361 C   0  0  0  0  0  0  0  0  0  0  0  0
    4.8823    0.7338   -3.2685 O   0  0  0  0  0  0  0  0  0  0  0  0
    3.2208    1.5397   -1.9977 N   0  0  0  0  0  0  0  0  0  0  0  0
    2.4823    1.7157   -0.7411 C   0  0  2  0  0  0  0  0  0  0  0  0
    1.1811    0.8666   -0.7959 C   0  0  0  0  0  0  0  0  0  0  0  0
    0.6423    0.5547   -1.8446 O   0  0  0  0  0  0  0  0  0  0  0  0
    0.6633    0.5125    0.4423 N   0  0  0  0  0  0  0  0  0  0  0  0
    2.1331    3.2042   -0.5359 C   0  0  0  0  0  0  0  0  0  0  0  0
    1.8975    3.5077    0.9273 C   0  0  0  0  0  0  0  0  0  0  0  0
    1.9814    2.6746    1.8216 O   0  0  0  0  0  0  0  0  0  0  0  0
    1.5742    4.8208    1.2405 N   0  0  0  0  0  0  0  0  0  0  0  0
   -1.6870   -0.1283    0.8857 C   0  0  2  0  0  0  0  0  0  0  0  0
   -2.4215   -1.2873    1.3073 O   0  0  0  0  0  0  0  0  0  0  0  0
   -2.3617    0.4135   -0.3984 C   0  0  0  0  0  0  0  0  0  0  0  0
   -3.4652    1.3606   -0.1490 N   0  0  0  0  0  0  0  0  0  0  0  0
   -4.8597    0.8314    0.6972 S   0  0  0  0  0  0  0  0  0  0  0  0
   -4.4199    0.1797    1.9318 O   0  0  0  0  0  0  0  0  0  0  0  0
   -5.6896    2.0134    0.8141 O   0  0  0  0  0  0  0  0  0  0  0  0
   -5.5851   -0.3341   -0.3389 C   0  0  0  0  0  0  0  0  0  0  0  0
   -6.6587    0.0428   -1.1543 C   0  0  0  0  0  0  0  0  0  0  0  0
   -7.2616   -0.8982   -1.9932 C   0  0  0  0  0  0  0  0  0  0  0  0
   -6.7898   -2.2157   -2.0148 C   0  0  0  0  0  0  0  0  0  0  0  0
   -5.7177   -2.5933   -1.1989 C   0  0  0  0  0  0  0  0  0  0  0  0
   -5.1150   -1.6521   -0.3597 C   0  0  0  0  0  0  0  0  0  0  0  0
   -0.2682   -1.2285   -0.3796 H   0  0  0  0  0  0  0  0  0  0  0  0
   -0.4048   -2.4678    1.7599 H   0  0  0  0  0  0  0  0  0  0  0  0
    0.1224   -1.0908    2.7078 H   0  0  0  0  0  0  0  0  0  0  0  0
    2.4785   -0.5090    2.8935 H   0  0  0  0  0  0  0  0  0  0  0  0
    4.8505   -0.9258    2.2881 H   0  0  0  0  0  0  0  0  0  0  0  0
    3.6062   -3.9276   -0.5586 H   0  0  0  0  0  0  0  0  0  0  0  0
    1.2162   -3.5153    0.0603 H   0  0  0  0  0  0  0  0  0  0  0  0
    7.4586   -2.0712   -0.0810 H   0  0  0  0  0  0  0  0  0  0  0  0
    6.5659   -0.8999    0.9638 H   0  0  0  0  0  0  0  0  0  0  0  0
    5.4236   -1.5438   -1.7979 H   0  0  0  0  0  0  0  0  0  0  0  0
    6.8797   -0.5591   -1.8260 H   0  0  0  0  0  0  0  0  0  0  0  0
    5.8428    1.2506   -0.5423 H   0  0  0  0  0  0  0  0  0  0  0  0
    4.4781    0.2283   -0.0513 H   0  0  0  0  0  0  0  0  0  0  0  0
    2.6722    1.6788   -2.8568 H   0  0  0  0  0  0  0  0  0  0  0  0
    3.1146    1.3619    0.1285 H   0  0  0  0  0  0  0  0  0  0  0  0
    1.1004    0.8620    1.3079 H   0  0  0  0  0  0  0  0  0  0  0  0
    2.9656    3.8324   -0.9288 H   0  0  0  0  0  0  0  0  0  0  0  0
    1.2514    3.4844   -1.1512 H   0  0  0  0  0  0  0  0  0  0  0  0
    1.4937    5.5545    0.5603 H   0  0  0  0  0  0  0  0  0  0  0  0
    1.4108    5.0798    2.2041 H   0  0  0  0  0  0  0  0  0  0  0  0
   -1.6829    0.6243    1.7026 H   0  0  0  0  0  0  0  0  0  0  0  0
   -3.0885   -1.0254    2.0206 H   0  0  0  0  0  0  0  0  0  0  0  0
   -2.7430   -0.4484   -0.9969 H   0  0  0  0  0  0  0  0  0  0  0  0
   -1.6040    0.9066   -1.0578 H   0  0  0  0  0  0  0  0  0  0  0  0
   -3.1419    2.3198    0.0133 H   0  0  0  0  0  0  0  0  0  0  0  0
   -7.0320    1.0736   -1.1315 H   0  0  0  0  0  0  0  0  0  0  0  0
   -8.0973   -0.6061   -2.6277 H   0  0  0  0  0  0  0  0  0  0  0  0
   -7.2601   -2.9508   -2.6698 H   0  0  0  0  0  0  0  0  0  0  0  0
   -5.3520   -3.6195   -1.2154 H   0  0  0  0  0  0  0  0  0  0  0  0
   -4.2707   -1.9524    0.2800 H   0  0  0  0  0  0  0  0  0  0  0  0
  1 37  1  6  0  0  0
  1 24  1  0  0  0  0
  1  2  1  0  0  0  0
  2 38  1  0  0  0  0
  2 39  1  0  0  0  0
  3  2  1  0  0  0  0
  3  4  2  0  0  0  0
  4 40  1  0  0  0  0
  5  4  1  0  0  0  0
  5 41  1  0  0  0  0
  6  5  2  0  0  0  0
  7  8  2  0  0  0  0
  7  6  1  0  0  0  0
  8  3  1  0  0  0  0
  9  6  1  0  0  0  0
 10  9  1  0  0  0  0
 10 45  1  0  0  0  0
 11 12  1  0  0  0  0
 11 10  1  0  0  0  0
 12 48  1  0  0  0  0
 12 49  1  0  0  0  0
 13 15  1  0  0  0  0
 13 12  1  0  0  0  0
 14 13  2  0  0  0  0
 15 16  1  0  0  0  0
 16 20  1  0  0  0  0
 16 51  1  1  0  0  0
 17 16  1  0  0  0  0
 17 19  1  0  0  0  0
 18 17  2  0  0  0  0
 19  1  1  0  0  0  0
 19 52  1  0  0  0  0
 20 21  1  0  0  0  0
 21 23  1  0  0  0  0
 21 22  2  0  0  0  0
 23 56  1  0  0  0  0
 24 25  1  0  0  0  0
 24 57  1  1  0  0  0
 25 58  1  0  0  0  0
 26 27  1  0  0  0  0
 26 24  1  0  0  0  0
 27 61  1  0  0  0  0
 27 28  1  0  0  0  0
 28 30  2  0  0  0  0
 28 29  2  0  0  0  0
 31 28  1  0  0  0  0
 32 62  1  0  0  0  0
 32 31  2  0  0  0  0
 33 32  1  0  0  0  0
 34 33  2  0  0  0  0
 34 35  1  0  0  0  0
 35 36  2  0  0  0  0
 36 31  1  0  0  0  0
 36 66  1  0  0  0  0
 42  7  1  0  0  0  0
 43  8  1  0  0  0  0
 44 10  1  0  0  0  0
 46 11  1  0  0  0  0
 47 11  1  0  0  0  0
 50 15  1  0  0  0  0
 53 20  1  0  0  0  0
 54 20  1  0  0  0  0
 55 23  1  0  0  0  0
 59 26  1  0  0  0  0
 60 26  1  0  0  0  0
 63 33  1  0  0  0  0
 64 34  1  0  0  0  0
 65 35  1  0  0  0  0
M  END
