omegapdb_2f7p_23.log
 OpenBabel10161801213D
Gaussian 16 # PM6 Opt
 34 35  0  0  1  0  0  0  0  0999 V2000
   -0.9838    0.3852   -0.9459 C   0  0  1  0  0  0  0  0  0  0  0  0
    0.3447    0.9942   -0.7351 N   0  0  0  0  0  0  0  0  0  0  0  0
    1.0175    0.6814    0.5682 C   0  0  0  0  0  0  0  0  0  0  0  0
    2.4697    0.3282    0.3568 C   0  0  0  0  0  0  0  0  0  0  0  0
    3.4756    1.2749    0.5930 C   0  0  0  0  0  0  0  0  0  0  0  0
    4.8172    0.9325    0.3961 C   0  0  0  0  0  0  0  0  0  0  0  0
    5.1585   -0.3510   -0.0403 C   0  0  0  0  0  0  0  0  0  0  0  0
    4.1542   -1.2956   -0.2815 C   0  0  0  0  0  0  0  0  0  0  0  0
    2.8138   -0.9589   -0.0846 C   0  0  0  0  0  0  0  0  0  0  0  0
   -1.1200   -1.1714   -1.0090 C   0  0  1  0  0  0  0  0  0  0  0  0
   -0.1658   -1.7858   -0.1483 O   0  0  0  0  0  0  0  0  0  0  0  0
   -2.5693   -1.4887   -0.5280 C   0  0  1  0  0  0  0  0  0  0  0  0
   -2.4973   -2.5248    0.4462 O   0  0  0  0  0  0  0  0  0  0  0  0
   -3.1463   -0.1779    0.0964 C   0  0  1  0  0  0  0  0  0  0  0  0
   -3.4476   -0.4661    1.4729 O   0  0  0  0  0  0  0  0  0  0  0  0
   -1.9941    0.8312    0.1306 C   0  0  2  0  0  0  0  0  0  0  0  0
   -2.6257    2.4911   -0.2418 S   0  0  0  0  0  0  0  0  0  0  0  0
   -1.3237    0.7622   -1.9560 H   0  0  0  0  0  0  0  0  0  0  0  0
    0.9649    0.7286   -1.5130 H   0  0  0  0  0  0  0  0  0  0  0  0
    0.9154    1.5932    1.2003 H   0  0  0  0  0  0  0  0  0  0  0  0
    0.5118   -0.1500    1.1178 H   0  0  0  0  0  0  0  0  0  0  0  0
    3.2149    2.2777    0.9263 H   0  0  0  0  0  0  0  0  0  0  0  0
    5.5966    1.6689    0.5825 H   0  0  0  0  0  0  0  0  0  0  0  0
    6.2026   -0.6155   -0.1921 H   0  0  0  0  0  0  0  0  0  0  0  0
    4.4185   -2.2952   -0.6215 H   0  0  0  0  0  0  0  0  0  0  0  0
    2.0237   -1.6931   -0.2697 H   0  0  0  0  0  0  0  0  0  0  0  0
   -0.9187   -1.5581   -2.0289 H   0  0  0  0  0  0  0  0  0  0  0  0
   -0.5747   -2.5954    0.2798 H   0  0  0  0  0  0  0  0  0  0  0  0
   -3.2040   -1.9069   -1.3332 H   0  0  0  0  0  0  0  0  0  0  0  0
   -2.4777   -2.1197    1.3698 H   0  0  0  0  0  0  0  0  0  0  0  0
   -4.0555    0.1746   -0.4280 H   0  0  0  0  0  0  0  0  0  0  0  0
   -4.3874   -0.7348    1.5700 H   0  0  0  0  0  0  0  0  0  0  0  0
   -1.5399    0.8304    1.1544 H   0  0  0  0  0  0  0  0  0  0  0  0
   -1.4414    3.0901   -0.5205 H   0  0  0  0  0  0  0  0  0  0  0  0
  1 18  1  6  0  0  0
  1  2  1  0  0  0  0
  1 16  1  0  0  0  0
  2  3  1  0  0  0  0
  3 21  1  0  0  0  0
  3 20  1  0  0  0  0
  4  3  1  0  0  0  0
  4  5  2  0  0  0  0
  5 22  1  0  0  0  0
  6 23  1  0  0  0  0
  6  5  1  0  0  0  0
  7  6  2  0  0  0  0
  8  9  2  0  0  0  0
  8  7  1  0  0  0  0
  9  4  1  0  0  0  0
 10 27  1  6  0  0  0
 10  1  1  0  0  0  0
 10 12  1  0  0  0  0
 10 11  1  0  0  0  0
 11 28  1  0  0  0  0
 12 29  1  6  0  0  0
 12 14  1  0  0  0  0
 12 13  1  0  0  0  0
 13 30  1  0  0  0  0
 14 31  1  6  0  0  0
 14 16  1  0  0  0  0
 14 15  1  0  0  0  0
 15 32  1  0  0  0  0
 16 33  1  1  0  0  0
 17 16  1  0  0  0  0
 19  2  1  0  0  0  0
 24  7  1  0  0  0  0
 25  8  1  0  0  0  0
 26  9  1  0  0  0  0
 34 17  1  0  0  0  0
M  END
