omegapdb_2byh_03.log
 OpenBabel10161801213D
Gaussian 16 # PM6 Opt
 40 42  0  0  0  0  0  0  0  0999 V2000
    7.4233    0.3645    1.0451 O   0  0  0  0  0  0  0  0  0  0  0  0
    6.5571    0.9390    0.4150 C   0  0  0  0  0  0  0  0  0  0  0  0
    6.8340    2.2636   -0.2400 C   0  0  0  0  0  0  0  0  0  0  0  0
    5.1951    0.3540    0.2690 C   0  0  0  0  0  0  0  0  0  0  0  0
    4.9466   -0.8898    0.8797 C   0  0  0  0  0  0  0  0  0  0  0  0
    3.6991   -1.4962    0.7851 C   0  0  0  0  0  0  0  0  0  0  0  0
    2.6674   -0.8512    0.0644 C   0  0  0  0  0  0  0  0  0  0  0  0
    2.9050    0.3929   -0.5485 C   0  0  0  0  0  0  0  0  0  0  0  0
    4.1622    0.9827   -0.4420 C   0  0  0  0  0  0  0  0  0  0  0  0
    1.4098   -1.5182   -0.0099 N   0  0  0  0  0  0  0  0  0  0  0  0
    0.2383   -1.0358   -0.6477 C   0  0  0  0  0  0  0  0  0  0  0  0
    0.1981    0.0661   -1.1670 O   0  0  0  0  0  0  0  0  0  0  0  0
   -0.8777   -1.9851   -0.6063 C   0  0  0  0  0  0  0  0  0  0  0  0
   -0.7947   -3.3970   -0.8689 C   0  0  0  0  0  0  0  0  0  0  0  0
   -2.0185   -3.9657   -0.7490 N   0  0  0  0  0  0  0  0  0  0  0  0
   -2.8817   -2.9584   -0.4296 N   0  0  0  0  0  0  0  0  0  0  0  0
   -2.2368   -1.7205   -0.3340 C   0  0  0  0  0  0  0  0  0  0  0  0
   -2.9508   -0.4973   -0.0116 C   0  0  0  0  0  0  0  0  0  0  0  0
   -2.5508    0.7342   -0.5648 C   0  0  0  0  0  0  0  0  0  0  0  0
   -3.2199    1.9086   -0.2347 C   0  0  0  0  0  0  0  0  0  0  0  0
   -2.7303    3.4009   -0.9121 Cl  0  0  0  0  0  0  0  0  0  0  0  0
   -4.3099    1.8865    0.6649 C   0  0  0  0  0  0  0  0  0  0  0  0
   -4.9994    2.9911    1.0402 O   0  0  0  0  0  0  0  0  0  0  0  0
   -4.7471    0.6763    1.2216 C   0  0  0  0  0  0  0  0  0  0  0  0
   -4.0668   -0.4905    0.8640 C   0  0  0  0  0  0  0  0  0  0  0  0
   -4.4677   -1.7133    1.3359 O   0  0  0  0  0  0  0  0  0  0  0  0
    6.1835    3.0568    0.1489 H   0  0  0  0  0  0  0  0  0  0  0  0
    6.7000    2.2182   -1.3280 H   0  0  0  0  0  0  0  0  0  0  0  0
    7.8734    2.5769   -0.0546 H   0  0  0  0  0  0  0  0  0  0  0  0
    5.7567   -1.3768    1.4350 H   0  0  0  0  0  0  0  0  0  0  0  0
    3.5293   -2.4566    1.2654 H   0  0  0  0  0  0  0  0  0  0  0  0
    2.1064    0.8968   -1.1044 H   0  0  0  0  0  0  0  0  0  0  0  0
    4.3312    1.9477   -0.9232 H   0  0  0  0  0  0  0  0  0  0  0  0
    1.3540   -2.4205    0.4733 H   0  0  0  0  0  0  0  0  0  0  0  0
    0.0852   -3.9576   -1.1458 H   0  0  0  0  0  0  0  0  0  0  0  0
   -3.8582   -3.1563   -0.2311 H   0  0  0  0  0  0  0  0  0  0  0  0
   -1.6935    0.7690   -1.2641 H   0  0  0  0  0  0  0  0  0  0  0  0
   -4.6573    3.8357    0.6263 H   0  0  0  0  0  0  0  0  0  0  0  0
   -5.5922    0.6752    1.9053 H   0  0  0  0  0  0  0  0  0  0  0  0
   -5.2068   -1.6428    1.9972 H   0  0  0  0  0  0  0  0  0  0  0  0
  2  1  2  0  0  0  0
  3 29  1  0  0  0  0
  3 27  1  0  0  0  0
  3  2  1  0  0  0  0
  4  2  1  0  0  0  0
  4  5  2  0  0  0  0
  5 30  1  0  0  0  0
  6  5  1  0  0  0  0
  6 31  1  0  0  0  0
  7  6  2  0  0  0  0
  8  9  2  0  0  0  0
  8  7  1  0  0  0  0
  9  4  1  0  0  0  0
 10  7  1  0  0  0  0
 10 34  1  0  0  0  0
 11 13  1  0  0  0  0
 11 10  1  0  0  0  0
 12 11  2  0  0  0  0
 13 17  2  0  0  0  0
 14 15  2  0  0  0  0
 14 13  1  0  0  0  0
 15 16  1  0  0  0  0
 16 17  1  0  0  0  0
 16 36  1  0  0  0  0
 17 18  1  0  0  0  0
 18 25  2  0  0  0  0
 19 20  2  0  0  0  0
 19 18  1  0  0  0  0
 20 22  1  0  0  0  0
 21 20  1  0  0  0  0
 22 23  1  0  0  0  0
 22 24  2  0  0  0  0
 24 39  1  0  0  0  0
 25 24  1  0  0  0  0
 25 26  1  0  0  0  0
 26 40  1  0  0  0  0
 28  3  1  0  0  0  0
 32  8  1  0  0  0  0
 33  9  1  0  0  0  0
 35 14  1  0  0  0  0
 37 19  1  0  0  0  0
 38 23  1  0  0  0  0
M  END
