omegapdb_2f7p_22.log
 OpenBabel10161801213D
Gaussian 16 # PM6 Opt
 34 35  0  0  1  0  0  0  0  0999 V2000
   -0.5803    0.4483    0.0504 C   0  0  1  0  0  0  0  0  0  0  0  0
    0.0666    0.9131    1.2977 N   0  0  0  0  0  0  0  0  0  0  0  0
    1.4023    1.5378    1.0927 C   0  0  0  0  0  0  0  0  0  0  0  0
    2.4606    0.6984    0.4131 C   0  0  0  0  0  0  0  0  0  0  0  0
    2.6331   -0.6554    0.7321 C   0  0  0  0  0  0  0  0  0  0  0  0
    3.6402   -1.3999    0.1121 C   0  0  0  0  0  0  0  0  0  0  0  0
    4.4844   -0.7989   -0.8267 C   0  0  0  0  0  0  0  0  0  0  0  0
    4.3153    0.5518   -1.1472 C   0  0  0  0  0  0  0  0  0  0  0  0
    3.3072    1.2987   -0.5316 C   0  0  0  0  0  0  0  0  0  0  0  0
   -0.4630   -1.0933   -0.2176 C   0  0  1  0  0  0  0  0  0  0  0  0
   -0.1621   -1.7608    1.0017 O   0  0  0  0  0  0  0  0  0  0  0  0
   -1.8366   -1.5483   -0.7987 C   0  0  1  0  0  0  0  0  0  0  0  0
   -2.3193   -2.5790    0.0649 O   0  0  0  0  0  0  0  0  0  0  0  0
   -2.7620   -0.2945   -0.7931 C   0  0  1  0  0  0  0  0  0  0  0  0
   -4.0200   -0.7660   -0.2921 O   0  0  0  0  0  0  0  0  0  0  0  0
   -2.0997    0.7048    0.1620 C   0  0  2  0  0  0  0  0  0  0  0  0
   -2.5228    2.3919   -0.3366 S   0  0  0  0  0  0  0  0  0  0  0  0
   -0.1604    0.9871   -0.8384 H   0  0  0  0  0  0  0  0  0  0  0  0
    0.1382    0.1226    1.9624 H   0  0  0  0  0  0  0  0  0  0  0  0
    1.2461    2.4913    0.5357 H   0  0  0  0  0  0  0  0  0  0  0  0
    1.7772    1.8385    2.1021 H   0  0  0  0  0  0  0  0  0  0  0  0
    1.9705   -1.1424    1.4530 H   0  0  0  0  0  0  0  0  0  0  0  0
    3.7655   -2.4523    0.3635 H   0  0  0  0  0  0  0  0  0  0  0  0
    5.2696   -1.3796   -1.3059 H   0  0  0  0  0  0  0  0  0  0  0  0
    4.9701    1.0236   -1.8777 H   0  0  0  0  0  0  0  0  0  0  0  0
    3.1846    2.3491   -0.7879 H   0  0  0  0  0  0  0  0  0  0  0  0
    0.3913   -1.3279   -0.8864 H   0  0  0  0  0  0  0  0  0  0  0  0
   -0.9439   -2.3211    1.2949 H   0  0  0  0  0  0  0  0  0  0  0  0
   -1.7483   -2.0116   -1.8017 H   0  0  0  0  0  0  0  0  0  0  0  0
   -3.2356   -2.3562    0.4007 H   0  0  0  0  0  0  0  0  0  0  0  0
   -2.9334    0.0991   -1.8184 H   0  0  0  0  0  0  0  0  0  0  0  0
   -4.5672   -0.0210    0.0390 H   0  0  0  0  0  0  0  0  0  0  0  0
   -2.4452    0.5275    1.2106 H   0  0  0  0  0  0  0  0  0  0  0  0
   -1.7777    3.0599    0.5762 H   0  0  0  0  0  0  0  0  0  0  0  0
  1 18  1  6  0  0  0
  1 16  1  0  0  0  0
  1  2  1  0  0  0  0
  2 19  1  0  0  0  0
  3  2  1  0  0  0  0
  3 21  1  0  0  0  0
  4  5  1  0  0  0  0
  4  3  1  0  0  0  0
  5 22  1  0  0  0  0
  6 23  1  0  0  0  0
  6  5  2  0  0  0  0
  7  6  1  0  0  0  0
  8  7  2  0  0  0  0
  8  9  1  0  0  0  0
  9  4  2  0  0  0  0
 10 27  1  6  0  0  0
 10  1  1  0  0  0  0
 10 11  1  0  0  0  0
 11 28  1  0  0  0  0
 12 29  1  6  0  0  0
 12 14  1  0  0  0  0
 12 10  1  0  0  0  0
 12 13  1  0  0  0  0
 13 30  1  0  0  0  0
 14 31  1  6  0  0  0
 14 15  1  0  0  0  0
 14 16  1  0  0  0  0
 15 32  1  0  0  0  0
 16 33  1  1  0  0  0
 17 16  1  0  0  0  0
 17 34  1  0  0  0  0
 20  3  1  0  0  0  0
 24  7  1  0  0  0  0
 25  8  1  0  0  0  0
 26  9  1  0  0  0  0
M  END
