omegapdb_1qxw_23.log
 OpenBabel10161801213D
Gaussian 16 # PM6 Opt
 36 36  0  0  1  0  0  0  0  0999 V2000
    4.0098   -1.9302   -0.2609 C   0  0  0  0  0  0  0  0  0  0  0  0
    4.8395   -0.7086    0.0881 C   0  0  0  0  0  0  0  0  0  0  0  0
    3.3238   -0.6373    0.1772 C   0  0  0  0  0  0  0  0  0  0  0  0
    2.6178    0.2247   -0.7751 N   0  0  0  0  0  0  0  0  0  0  0  0
    1.1492   -0.0406   -0.8000 C   0  0  0  0  0  0  0  0  0  0  0  0
    0.4760    0.7728    0.3292 C   0  0  0  0  0  0  0  0  0  0  0  0
   -1.0554    1.0624    0.1587 C   0  0  1  0  0  0  0  0  0  0  0  0
   -1.3328    2.0444   -0.9158 N   0  0  0  0  0  0  0  0  0  0  0  0
   -1.8204   -0.2536   -0.0668 C   0  0  0  0  0  0  0  0  0  0  0  0
   -3.3320   -0.0577    0.1060 C   0  0  0  0  0  0  0  0  0  0  0  0
   -4.0988   -1.3646   -0.1364 C   0  0  0  0  0  0  0  0  0  0  0  0
   -5.6035   -1.1734    0.0407 C   0  0  0  0  0  0  0  0  0  0  0  0
    1.0551    2.0455    0.5482 O   0  0  0  0  0  0  0  0  0  0  0  0
    0.6951    0.0161    1.5251 O   0  0  0  0  0  0  0  0  0  0  0  0
    3.9548   -2.2612   -1.2932 H   0  0  0  0  0  0  0  0  0  0  0  0
    4.0078   -2.7872    0.4079 H   0  0  0  0  0  0  0  0  0  0  0  0
    5.3687   -0.1765   -0.6989 H   0  0  0  0  0  0  0  0  0  0  0  0
    5.4241   -0.6985    1.0055 H   0  0  0  0  0  0  0  0  0  0  0  0
    2.8394   -0.6102    1.1720 H   0  0  0  0  0  0  0  0  0  0  0  0
    3.0067    0.1406   -1.7198 H   0  0  0  0  0  0  0  0  0  0  0  0
    0.7367    0.2740   -1.7808 H   0  0  0  0  0  0  0  0  0  0  0  0
    0.8900   -1.1155   -0.6625 H   0  0  0  0  0  0  0  0  0  0  0  0
   -1.4028    1.5314    1.1213 H   0  0  0  0  0  0  0  0  0  0  0  0
   -0.7816    2.8902   -0.7687 H   0  0  0  0  0  0  0  0  0  0  0  0
   -1.0941    1.6776   -1.8303 H   0  0  0  0  0  0  0  0  0  0  0  0
   -1.6111   -0.6605   -1.0735 H   0  0  0  0  0  0  0  0  0  0  0  0
   -1.4506   -1.0097    0.6579 H   0  0  0  0  0  0  0  0  0  0  0  0
   -3.5519    0.3276    1.1198 H   0  0  0  0  0  0  0  0  0  0  0  0
   -3.6863    0.7298   -0.5911 H   0  0  0  0  0  0  0  0  0  0  0  0
   -3.8889   -1.7418   -1.1562 H   0  0  0  0  0  0  0  0  0  0  0  0
   -3.7380   -2.1488    0.5576 H   0  0  0  0  0  0  0  0  0  0  0  0
   -5.8513   -0.8402    1.0550 H   0  0  0  0  0  0  0  0  0  0  0  0
   -6.1464   -2.1074   -0.1405 H   0  0  0  0  0  0  0  0  0  0  0  0
   -5.9985   -0.4229   -0.6541 H   0  0  0  0  0  0  0  0  0  0  0  0
    2.0386    2.0305    0.3894 H   0  0  0  0  0  0  0  0  0  0  0  0
    0.6100    0.5870    2.3174 H   0  0  0  0  0  0  0  0  0  0  0  0
  1  2  1  0  0  0  0
  1  3  1  0  0  0  0
  1 16  1  0  0  0  0
  2  3  1  0  0  0  0
  2 18  1  0  0  0  0
  3 19  1  0  0  0  0
  4  3  1  0  0  0  0
  5  4  1  0  0  0  0
  5 22  1  0  0  0  0
  5  6  1  0  0  0  0
  6 13  1  0  0  0  0
  6 14  1  0  0  0  0
  7  6  1  0  0  0  0
  7 23  1  1  0  0  0
  8 24  1  0  0  0  0
  8  7  1  0  0  0  0
  9 10  1  0  0  0  0
  9  7  1  0  0  0  0
  9 27  1  0  0  0  0
 10 28  1  0  0  0  0
 11 12  1  0  0  0  0
 11 10  1  0  0  0  0
 11 31  1  0  0  0  0
 12 32  1  0  0  0  0
 14 36  1  0  0  0  0
 15  1  1  0  0  0  0
 17  2  1  0  0  0  0
 20  4  1  0  0  0  0
 21  5  1  0  0  0  0
 25  8  1  0  0  0  0
 26  9  1  0  0  0  0
 29 10  1  0  0  0  0
 30 11  1  0  0  0  0
 33 12  1  0  0  0  0
 34 12  1  0  0  0  0
 35 13  1  0  0  0  0
M  END
