omegapdb_2f7p_09.log
 OpenBabel10161801213D
Gaussian 16 # PM6 Opt
 34 35  0  0  1  0  0  0  0  0999 V2000
    0.9257    0.4713    0.5571 C   0  0  1  0  0  0  0  0  0  0  0  0
   -0.2768    0.9311   -0.1702 N   0  0  0  0  0  0  0  0  0  0  0  0
   -1.4415    1.2320    0.7234 C   0  0  0  0  0  0  0  0  0  0  0  0
   -2.7146    0.5529    0.2777 C   0  0  0  0  0  0  0  0  0  0  0  0
   -2.7944   -0.8468    0.2302 C   0  0  0  0  0  0  0  0  0  0  0  0
   -3.9837   -1.4667   -0.1591 C   0  0  0  0  0  0  0  0  0  0  0  0
   -5.1001   -0.6961   -0.5019 C   0  0  0  0  0  0  0  0  0  0  0  0
   -5.0213    0.6990   -0.4588 C   0  0  0  0  0  0  0  0  0  0  0  0
   -3.8321    1.3243   -0.0723 C   0  0  0  0  0  0  0  0  0  0  0  0
    0.9978   -1.0636    0.8702 C   0  0  1  0  0  0  0  0  0  0  0  0
    0.1326   -1.7589   -0.0161 O   0  0  0  0  0  0  0  0  0  0  0  0
    2.4863   -1.4873    0.6743 C   0  0  1  0  0  0  0  0  0  0  0  0
    2.4836   -2.5497   -0.2796 O   0  0  0  0  0  0  0  0  0  0  0  0
    3.2464   -0.2283    0.1589 C   0  0  1  0  0  0  0  0  0  0  0  0
    4.0600   -0.7063   -0.9203 O   0  0  0  0  0  0  0  0  0  0  0  0
    2.1639    0.7429   -0.3258 C   0  0  2  0  0  0  0  0  0  0  0  0
    2.7409    2.4472   -0.1341 S   0  0  0  0  0  0  0  0  0  0  0  0
    1.0164    1.0266    1.5273 H   0  0  0  0  0  0  0  0  0  0  0  0
   -0.5448    0.2248   -0.8767 H   0  0  0  0  0  0  0  0  0  0  0  0
   -1.2479    0.9691    1.7876 H   0  0  0  0  0  0  0  0  0  0  0  0
   -1.5574    2.3426    0.6991 H   0  0  0  0  0  0  0  0  0  0  0  0
   -1.9207   -1.4553    0.4861 H   0  0  0  0  0  0  0  0  0  0  0  0
   -4.0402   -2.5535   -0.1957 H   0  0  0  0  0  0  0  0  0  0  0  0
   -6.0259   -1.1814   -0.8030 H   0  0  0  0  0  0  0  0  0  0  0  0
   -5.8868    1.3015   -0.7287 H   0  0  0  0  0  0  0  0  0  0  0  0
   -3.7770    2.4108   -0.0481 H   0  0  0  0  0  0  0  0  0  0  0  0
    0.6186   -1.2949    1.8860 H   0  0  0  0  0  0  0  0  0  0  0  0
    0.6614   -2.3718   -0.6136 H   0  0  0  0  0  0  0  0  0  0  0  0
    2.9374   -1.9128    1.5932 H   0  0  0  0  0  0  0  0  0  0  0  0
    3.0585   -2.3191   -1.0665 H   0  0  0  0  0  0  0  0  0  0  0  0
    3.9239    0.1933    0.9327 H   0  0  0  0  0  0  0  0  0  0  0  0
    4.3504    0.0342   -1.4961 H   0  0  0  0  0  0  0  0  0  0  0  0
    1.9259    0.5494   -1.4012 H   0  0  0  0  0  0  0  0  0  0  0  0
    1.5874    3.0808   -0.4599 H   0  0  0  0  0  0  0  0  0  0  0  0
  1 10  1  0  0  0  0
  1 18  1  1  0  0  0
  2  1  1  0  0  0  0
  2  3  1  0  0  0  0
  3 20  1  0  0  0  0
  4  3  1  0  0  0  0
  5  4  1  0  0  0  0
  5 22  1  0  0  0  0
  6  5  2  0  0  0  0
  7  8  2  0  0  0  0
  7  6  1  0  0  0  0
  8  9  1  0  0  0  0
  9 26  1  0  0  0  0
  9  4  2  0  0  0  0
 10 27  1  1  0  0  0
 11 10  1  0  0  0  0
 12 10  1  0  0  0  0
 12 29  1  1  0  0  0
 13 12  1  0  0  0  0
 14 12  1  0  0  0  0
 14 31  1  1  0  0  0
 15 14  1  0  0  0  0
 16 33  1  6  0  0  0
 16 17  1  0  0  0  0
 16 14  1  0  0  0  0
 16  1  1  0  0  0  0
 19  2  1  0  0  0  0
 21  3  1  0  0  0  0
 23  6  1  0  0  0  0
 24  7  1  0  0  0  0
 25  8  1  0  0  0  0
 28 11  1  0  0  0  0
 30 13  1  0  0  0  0
 32 15  1  0  0  0  0
 34 17  1  0  0  0  0
M  END
