omegapdb_1xom_06.log
 OpenBabel10161801213D
Gaussian 16 # PM6 Opt
 50 52  0  0  1  0  0  0  0  0999 V2000
   -5.9921    0.4568   -0.0323 O   0  0  0  0  0  0  0  0  0  0  0  0
   -5.1168    1.5014    0.1510 C   0  0  0  0  0  0  0  0  0  0  0  0
   -5.5458    2.6231    0.2851 O   0  0  0  0  0  0  0  0  0  0  0  0
   -3.6765    1.0305    0.1519 C   0  0  1  0  0  0  0  0  0  0  0  0
   -3.4465    0.0269    1.2958 C   0  0  0  0  0  0  0  0  0  0  0  0
   -1.9959   -0.4611    1.3053 C   0  0  0  0  0  0  0  0  0  0  0  0
   -1.5678   -1.0670   -0.0597 C   0  0  2  0  0  0  0  0  0  0  0  0
   -1.8731   -0.0824   -1.2222 C   0  0  0  0  0  0  0  0  0  0  0  0
   -3.3253    0.4010   -1.2081 C   0  0  0  0  0  0  0  0  0  0  0  0
   -2.3661   -2.2894   -0.2838 C   0  0  0  0  0  0  0  0  0  0  0  0
   -3.0132   -3.2298   -0.4585 N   0  0  0  0  0  0  0  0  0  0  0  0
   -0.0727   -1.3829   -0.0302 C   0  0  0  0  0  0  0  0  0  0  0  0
    0.4149   -2.6757   -0.1631 C   0  0  0  0  0  0  0  0  0  0  0  0
    1.8012   -2.9363   -0.1290 C   0  0  0  0  0  0  0  0  0  0  0  0
    2.6931   -1.8904    0.0404 C   0  0  0  0  0  0  0  0  0  0  0  0
    4.0645   -1.9702    0.0972 O   0  0  0  0  0  0  0  0  0  0  0  0
    4.6520   -3.2882   -0.0378 C   0  0  0  0  0  0  0  0  0  0  0  0
    2.1976   -0.5472    0.1799 C   0  0  0  0  0  0  0  0  0  0  0  0
    0.8333   -0.3067    0.1434 C   0  0  0  0  0  0  0  0  0  0  0  0
    3.1896    0.3805    0.3448 O   0  0  0  0  0  0  0  0  0  0  0  0
    2.8270    1.7919    0.5210 C   0  0  0  0  0  0  0  0  0  0  0  0
    4.1573    2.4164    0.9724 C   0  0  0  0  0  0  0  0  0  0  0  0
    4.5235    3.4918   -0.0639 C   0  0  0  0  0  0  0  0  0  0  0  0
    3.2873    3.6921   -0.9616 C   0  0  0  0  0  0  0  0  0  0  0  0
    2.4373    2.4185   -0.8269 C   0  0  0  0  0  0  0  0  0  0  0  0
   -6.9433    0.7493   -0.0358 H   0  0  0  0  0  0  0  0  0  0  0  0
   -3.0344    1.9353    0.3183 H   0  0  0  0  0  0  0  0  0  0  0  0
   -4.1441   -0.8316    1.1838 H   0  0  0  0  0  0  0  0  0  0  0  0
   -3.6925    0.4916    2.2703 H   0  0  0  0  0  0  0  0  0  0  0  0
   -1.8553   -1.2156    2.1053 H   0  0  0  0  0  0  0  0  0  0  0  0
   -1.3174    0.3753    1.5641 H   0  0  0  0  0  0  0  0  0  0  0  0
   -1.6458   -0.5716   -2.1906 H   0  0  0  0  0  0  0  0  0  0  0  0
   -1.1865    0.7845   -1.1589 H   0  0  0  0  0  0  0  0  0  0  0  0
   -4.0174   -0.4435   -1.4174 H   0  0  0  0  0  0  0  0  0  0  0  0
   -3.4853    1.1329   -2.0235 H   0  0  0  0  0  0  0  0  0  0  0  0
   -0.2531   -3.5270   -0.2974 H   0  0  0  0  0  0  0  0  0  0  0  0
    2.1457   -3.9614   -0.2370 H   0  0  0  0  0  0  0  0  0  0  0  0
    4.3288   -3.9369    0.7809 H   0  0  0  0  0  0  0  0  0  0  0  0
    4.4154   -3.7139   -1.0169 H   0  0  0  0  0  0  0  0  0  0  0  0
    5.7229   -3.0582    0.0421 H   0  0  0  0  0  0  0  0  0  0  0  0
    0.4500    0.7052    0.2461 H   0  0  0  0  0  0  0  0  0  0  0  0
    2.0324    1.8542    1.2865 H   0  0  0  0  0  0  0  0  0  0  0  0
    4.0719    2.8374    1.9869 H   0  0  0  0  0  0  0  0  0  0  0  0
    4.9381    1.6288    1.0279 H   0  0  0  0  0  0  0  0  0  0  0  0
    4.8232    4.4343    0.4222 H   0  0  0  0  0  0  0  0  0  0  0  0
    5.3884    3.1631   -0.6678 H   0  0  0  0  0  0  0  0  0  0  0  0
    3.5768    3.8733   -2.0099 H   0  0  0  0  0  0  0  0  0  0  0  0
    2.7129    4.5783   -0.6392 H   0  0  0  0  0  0  0  0  0  0  0  0
    2.6670    1.7064   -1.6444 H   0  0  0  0  0  0  0  0  0  0  0  0
    1.3612    2.6364   -0.8945 H   0  0  0  0  0  0  0  0  0  0  0  0
  1  2  1  0  0  0  0
  2  4  1  0  0  0  0
  2  3  2  0  0  0  0
  4 27  1  1  0  0  0
  4  5  1  0  0  0  0
  5  6  1  0  0  0  0
  5 29  1  0  0  0  0
  6 31  1  0  0  0  0
  6 30  1  0  0  0  0
  7 10  1  6  0  0  0
  7 12  1  0  0  0  0
  7  6  1  0  0  0  0
  8  9  1  0  0  0  0
  8 33  1  0  0  0  0
  8  7  1  0  0  0  0
  9  4  1  0  0  0  0
 11 10  3  0  0  0  0
 12 19  2  0  0  0  0
 13 14  2  0  0  0  0
 13 12  1  0  0  0  0
 14 15  1  0  0  0  0
 15 16  1  0  0  0  0
 15 18  2  0  0  0  0
 17 40  1  0  0  0  0
 17 16  1  0  0  0  0
 17 38  1  0  0  0  0
 18 20  1  0  0  0  0
 19 18  1  0  0  0  0
 19 41  1  0  0  0  0
 20 21  1  0  0  0  0
 21 22  1  0  0  0  0
 21 42  1  0  0  0  0
 22 44  1  0  0  0  0
 22 43  1  0  0  0  0
 23 45  1  0  0  0  0
 23 22  1  0  0  0  0
 24 25  1  0  0  0  0
 24 48  1  0  0  0  0
 24 23  1  0  0  0  0
 25 21  1  0  0  0  0
 26  1  1  0  0  0  0
 28  5  1  0  0  0  0
 32  8  1  0  0  0  0
 34  9  1  0  0  0  0
 35  9  1  0  0  0  0
 36 13  1  0  0  0  0
 37 14  1  0  0  0  0
 39 17  1  0  0  0  0
 46 23  1  0  0  0  0
 47 24  1  0  0  0  0
 49 25  1  0  0  0  0
 50 25  1  0  0  0  0
M  END
