omegapdb_1qxw_05.log
 OpenBabel10161801213D
Gaussian 16 # PM6 Opt
 36 36  0  0  1  0  0  0  0  0999 V2000
   -4.9388   -0.8409    0.0443 C   0  0  0  0  0  0  0  0  0  0  0  0
   -4.0070   -1.8122   -0.6536 C   0  0  0  0  0  0  0  0  0  0  0  0
   -3.4953   -0.9588    0.5092 C   0  0  0  0  0  0  0  0  0  0  0  0
   -2.5973    0.1794    0.3095 N   0  0  0  0  0  0  0  0  0  0  0  0
   -1.1818   -0.2609    0.1148 C   0  0  0  0  0  0  0  0  0  0  0  0
   -0.3040    0.9955   -0.0801 C   0  0  0  0  0  0  0  0  0  0  0  0
    1.2144    0.7103   -0.2983 C   0  0  1  0  0  0  0  0  0  0  0  0
    1.8460    2.0139   -0.6438 N   0  0  0  0  0  0  0  0  0  0  0  0
    1.8189    0.0200    0.9403 C   0  0  0  0  0  0  0  0  0  0  0  0
    3.2915   -0.3639    0.7673 C   0  0  0  0  0  0  0  0  0  0  0  0
    3.5000   -1.4637   -0.2834 C   0  0  0  0  0  0  0  0  0  0  0  0
    4.9709   -1.8530   -0.4076 C   0  0  0  0  0  0  0  0  0  0  0  0
   -0.3734    1.8837    1.0260 O   0  0  0  0  0  0  0  0  0  0  0  0
   -0.8729    1.6638   -1.1987 O   0  0  0  0  0  0  0  0  0  0  0  0
   -5.7337   -1.2190    0.6834 H   0  0  0  0  0  0  0  0  0  0  0  0
   -5.2734    0.0518   -0.4803 H   0  0  0  0  0  0  0  0  0  0  0  0
   -3.6807   -1.6000   -1.6682 H   0  0  0  0  0  0  0  0  0  0  0  0
   -4.1428   -2.8810   -0.5169 H   0  0  0  0  0  0  0  0  0  0  0  0
   -3.2904   -1.4571    1.4693 H   0  0  0  0  0  0  0  0  0  0  0  0
   -2.8850    0.7495   -0.5021 H   0  0  0  0  0  0  0  0  0  0  0  0
   -1.0485   -0.9461   -0.7500 H   0  0  0  0  0  0  0  0  0  0  0  0
   -0.8489   -0.8048    1.0270 H   0  0  0  0  0  0  0  0  0  0  0  0
    1.3127    0.0415   -1.1945 H   0  0  0  0  0  0  0  0  0  0  0  0
    1.7890    2.6535    0.1500 H   0  0  0  0  0  0  0  0  0  0  0  0
    2.8309    1.8845   -0.8592 H   0  0  0  0  0  0  0  0  0  0  0  0
    1.7051    0.6906    1.8190 H   0  0  0  0  0  0  0  0  0  0  0  0
    1.2283   -0.8830    1.1912 H   0  0  0  0  0  0  0  0  0  0  0  0
    3.6888   -0.7071    1.7444 H   0  0  0  0  0  0  0  0  0  0  0  0
    3.8961    0.5255    0.5063 H   0  0  0  0  0  0  0  0  0  0  0  0
    2.8984   -2.3552   -0.0187 H   0  0  0  0  0  0  0  0  0  0  0  0
    3.1197   -1.1241   -1.2672 H   0  0  0  0  0  0  0  0  0  0  0  0
    5.1100   -2.6387   -1.1592 H   0  0  0  0  0  0  0  0  0  0  0  0
    5.3712   -2.2330    0.5394 H   0  0  0  0  0  0  0  0  0  0  0  0
    5.5924   -1.0015   -0.7073 H   0  0  0  0  0  0  0  0  0  0  0  0
   -1.3121    2.0583    1.2817 H   0  0  0  0  0  0  0  0  0  0  0  0
   -0.3111    2.4281   -1.4840 H   0  0  0  0  0  0  0  0  0  0  0  0
  1  3  1  0  0  0  0
  1 15  1  0  0  0  0
  2 18  1  0  0  0  0
  2  1  1  0  0  0  0
  2  3  1  0  0  0  0
  3 19  1  0  0  0  0
  4  3  1  0  0  0  0
  5  4  1  0  0  0  0
  5 22  1  0  0  0  0
  6  5  1  0  0  0  0
  6 13  1  0  0  0  0
  7 23  1  6  0  0  0
  7  6  1  0  0  0  0
  7  9  1  0  0  0  0
  8  7  1  0  0  0  0
  8 24  1  0  0  0  0
  9 27  1  0  0  0  0
  9 26  1  0  0  0  0
 10  9  1  0  0  0  0
 10 28  1  0  0  0  0
 11 30  1  0  0  0  0
 11 10  1  0  0  0  0
 12 11  1  0  0  0  0
 12 33  1  0  0  0  0
 13 35  1  0  0  0  0
 14  6  1  0  0  0  0
 16  1  1  0  0  0  0
 17  2  1  0  0  0  0
 20  4  1  0  0  0  0
 21  5  1  0  0  0  0
 25  8  1  0  0  0  0
 29 10  1  0  0  0  0
 31 11  1  0  0  0  0
 32 12  1  0  0  0  0
 34 12  1  0  0  0  0
 36 14  1  0  0  0  0
M  END
