omegapdb_1v2k_02.log
 OpenBabel10161801213D
Gaussian 16 # PM6 Opt
 61 65  0  0  0  0  0  0  0  0999 V2000
   -9.3140   -2.8625    0.7039 N   0  0  0  0  0  0  0  0  0  0  0  0
   -9.2678   -1.5767    1.1492 C   0  0  0  0  0  0  0  0  0  0  0  0
   -8.3103   -0.6509    0.7289 C   0  0  0  0  0  0  0  0  0  0  0  0
   -7.3356   -1.0478   -0.2196 C   0  0  0  0  0  0  0  0  0  0  0  0
   -7.3785   -2.3854   -0.6839 C   0  0  0  0  0  0  0  0  0  0  0  0
   -8.3750   -3.2401   -0.2055 C   0  0  0  0  0  0  0  0  0  0  0  0
   -6.4348   -0.1081   -0.7763 N   0  0  0  0  0  0  0  0  0  0  0  0
   -6.1265    1.1249    0.0058 C   0  0  0  0  0  0  0  0  0  0  0  0
   -5.0690    0.8672    1.0936 C   0  0  0  0  0  0  0  0  0  0  0  0
   -3.7871    0.2383    0.5157 C   0  0  0  0  0  0  0  0  0  0  0  0
   -4.1078   -0.9668   -0.3888 C   0  0  0  0  0  0  0  0  0  0  0  0
   -5.1940   -0.6231   -1.4248 C   0  0  0  0  0  0  0  0  0  0  0  0
   -3.0039    1.2780   -0.2923 C   0  0  0  0  0  0  0  0  0  0  0  0
   -3.5286    2.1328   -0.9940 O   0  0  0  0  0  0  0  0  0  0  0  0
   -1.6085    1.2421   -0.2190 N   0  0  0  0  0  0  0  0  0  0  0  0
   -0.8177    2.2431   -0.9903 C   0  0  0  0  0  0  0  0  0  0  0  0
    0.5478    1.6594   -1.3857 C   0  0  0  0  0  0  0  0  0  0  0  0
    1.3612    1.2278   -0.2141 N   0  0  0  0  0  0  0  0  0  0  0  0
    0.5396    0.7695    0.9465 C   0  0  0  0  0  0  0  0  0  0  0  0
   -0.8223    0.2077    0.4972 C   0  0  0  0  0  0  0  0  0  0  0  0
    2.6879    2.2635    0.2200 S   0  0  0  0  0  0  0  0  0  0  0  0
    2.3862    2.8505    1.5115 O   0  0  0  0  0  0  0  0  0  0  0  0
    2.9375    3.1077   -0.9322 O   0  0  0  0  0  0  0  0  0  0  0  0
    3.9911    1.1391    0.4065 C   0  0  0  0  0  0  0  0  0  0  0  0
    4.6382    0.6281   -0.6920 C   0  0  0  0  0  0  0  0  0  0  0  0
    5.7124   -0.3004   -0.5295 C   0  0  0  0  0  0  0  0  0  0  0  0
    6.1028   -0.6829    0.7831 C   0  0  0  0  0  0  0  0  0  0  0  0
    5.4168   -0.1241    1.9076 C   0  0  0  0  0  0  0  0  0  0  0  0
    4.3890    0.7658    1.7215 C   0  0  0  0  0  0  0  0  0  0  0  0
    7.1757   -1.6155    0.9494 C   0  0  0  0  0  0  0  0  0  0  0  0
    7.8017   -2.1146   -0.1637 C   0  0  0  0  0  0  0  0  0  0  0  0
    7.4285   -1.7413   -1.4870 C   0  0  0  0  0  0  0  0  0  0  0  0
    6.4017   -0.8491   -1.6598 C   0  0  0  0  0  0  0  0  0  0  0  0
    9.0952   -3.2400    0.0157 Cl  0  0  0  0  0  0  0  0  0  0  0  0
  -10.0390   -1.2975    1.8770 H   0  0  0  0  0  0  0  0  0  0  0  0
   -8.3297    0.3645    1.1146 H   0  0  0  0  0  0  0  0  0  0  0  0
   -6.6626   -2.7440   -1.4171 H   0  0  0  0  0  0  0  0  0  0  0  0
   -8.4383   -4.2786   -0.5517 H   0  0  0  0  0  0  0  0  0  0  0  0
   -7.0562    1.5413    0.4476 H   0  0  0  0  0  0  0  0  0  0  0  0
   -5.7421    1.8898   -0.7190 H   0  0  0  0  0  0  0  0  0  0  0  0
   -4.8284    1.8203    1.6035 H   0  0  0  0  0  0  0  0  0  0  0  0
   -5.4842    0.1938    1.8692 H   0  0  0  0  0  0  0  0  0  0  0  0
   -3.1654   -0.1178    1.3789 H   0  0  0  0  0  0  0  0  0  0  0  0
   -4.4522   -1.8109    0.2425 H   0  0  0  0  0  0  0  0  0  0  0  0
   -3.1960   -1.3202   -0.9045 H   0  0  0  0  0  0  0  0  0  0  0  0
   -5.4305   -1.5060   -2.0566 H   0  0  0  0  0  0  0  0  0  0  0  0
   -4.8296    0.1779   -2.1141 H   0  0  0  0  0  0  0  0  0  0  0  0
   -1.3960    2.5498   -1.8960 H   0  0  0  0  0  0  0  0  0  0  0  0
   -0.6984    3.1619   -0.3709 H   0  0  0  0  0  0  0  0  0  0  0  0
    1.1089    2.4041   -2.0035 H   0  0  0  0  0  0  0  0  0  0  0  0
    0.4089    0.7607   -2.0324 H   0  0  0  0  0  0  0  0  0  0  0  0
    0.3779    1.5919    1.6885 H   0  0  0  0  0  0  0  0  0  0  0  0
    1.1137   -0.0345    1.4626 H   0  0  0  0  0  0  0  0  0  0  0  0
   -0.6695   -0.6723   -0.1709 H   0  0  0  0  0  0  0  0  0  0  0  0
   -1.3912   -0.1473    1.3896 H   0  0  0  0  0  0  0  0  0  0  0  0
    4.3517    0.9251   -1.7075 H   0  0  0  0  0  0  0  0  0  0  0  0
    5.7306   -0.4137    2.9105 H   0  0  0  0  0  0  0  0  0  0  0  0
    3.8705    1.2109    2.5796 H   0  0  0  0  0  0  0  0  0  0  0  0
    7.4777   -1.9111    1.9545 H   0  0  0  0  0  0  0  0  0  0  0  0
    7.9649   -2.1686   -2.3352 H   0  0  0  0  0  0  0  0  0  0  0  0
    6.0945   -0.5418   -2.6612 H   0  0  0  0  0  0  0  0  0  0  0  0
  1  2  1  0  0  0  0
  2 35  1  0  0  0  0
  3 36  1  0  0  0  0
  3  2  2  0  0  0  0
  4  3  1  0  0  0  0
  5  4  2  0  0  0  0
  5  6  1  0  0  0  0
  6  1  2  0  0  0  0
  7  4  1  0  0  0  0
  7  8  1  0  0  0  0
  8 39  1  0  0  0  0
  8  9  1  0  0  0  0
  9 41  1  0  0  0  0
  9 42  1  0  0  0  0
 10  9  1  0  0  0  0
 10 43  1  0  0  0  0
 11 44  1  0  0  0  0
 11 10  1  0  0  0  0
 12  7  1  0  0  0  0
 12 11  1  0  0  0  0
 13 15  1  0  0  0  0
 13 10  1  0  0  0  0
 14 13  2  0  0  0  0
 15 20  1  0  0  0  0
 16 49  1  0  0  0  0
 16 15  1  0  0  0  0
 17 16  1  0  0  0  0
 17 18  1  0  0  0  0
 18 21  1  0  0  0  0
 18 19  1  0  0  0  0
 19 53  1  0  0  0  0
 19 52  1  0  0  0  0
 20 19  1  0  0  0  0
 20 55  1  0  0  0  0
 21 24  1  0  0  0  0
 21 22  2  0  0  0  0
 23 21  2  0  0  0  0
 24 29  2  0  0  0  0
 25 26  2  0  0  0  0
 25 24  1  0  0  0  0
 26 27  1  0  0  0  0
 27 30  1  0  0  0  0
 27 28  2  0  0  0  0
 28 57  1  0  0  0  0
 29 28  1  0  0  0  0
 29 58  1  0  0  0  0
 30 59  1  0  0  0  0
 31 34  1  0  0  0  0
 31 30  2  0  0  0  0
 32 31  1  0  0  0  0
 33 32  2  0  0  0  0
 33 26  1  0  0  0  0
 37  5  1  0  0  0  0
 38  6  1  0  0  0  0
 40  8  1  0  0  0  0
 45 11  1  0  0  0  0
 46 12  1  0  0  0  0
 47 12  1  0  0  0  0
 48 16  1  0  0  0  0
 50 17  1  0  0  0  0
 51 17  1  0  0  0  0
 54 20  1  0  0  0  0
 56 25  1  0  0  0  0
 60 32  1  0  0  0  0
 61 33  1  0  0  0  0
M  END
