omegapdb_1m5f_13.log
 OpenBabel10161801213D
Gaussian 16 # PM6 Opt Geom=check
 25 25  0  0  1  0  0  0  0  0999 V2000
    3.5486   -1.2789    0.5301 O   0  0  0  0  0  0  0  0  0  0  0  0
    2.2774   -1.1822    0.0382 C   0  0  0  0  0  0  0  0  0  0  0  0
    1.7402   -2.1995   -0.3241 O   0  0  0  0  0  0  0  0  0  0  0  0
    1.6682    0.1736   -0.0109 C   0  0  0  0  0  0  0  0  0  0  0  0
    2.2359    1.2890    0.4733 N   0  0  0  0  0  0  0  0  0  0  0  0
    1.3828    2.3386    0.2608 O   0  0  0  0  0  0  0  0  0  0  0  0
    0.2259    1.8462   -0.3896 C   0  0  0  0  0  0  0  0  0  0  0  0
    0.3697    0.4869   -0.5804 C   0  0  0  0  0  0  0  0  0  0  0  0
   -0.5632   -0.4697   -1.2150 C   0  0  0  0  0  0  0  0  0  0  0  0
   -1.3954   -1.2394   -0.1622 C   0  0  2  0  0  0  0  0  0  0  0  0
   -2.3243   -2.2421   -0.7232 N   0  0  0  0  0  0  0  0  0  0  0  0
   -2.2777   -0.2481    0.6015 C   0  0  0  0  0  0  0  0  0  0  0  0
   -2.9563    0.6643    0.1873 O   0  0  0  0  0  0  0  0  0  0  0  0
   -2.1850   -0.4873    1.9450 O   0  0  0  0  0  0  0  0  0  0  0  0
   -0.7998    2.8442   -0.6801 C   0  0  0  0  0  0  0  0  0  0  0  0
    3.9605   -0.4250    0.8347 H   0  0  0  0  0  0  0  0  0  0  0  0
   -1.2350    0.0578   -1.9272 H   0  0  0  0  0  0  0  0  0  0  0  0
    0.0147   -1.2096   -1.8191 H   0  0  0  0  0  0  0  0  0  0  0  0
   -0.7001   -1.7512    0.5664 H   0  0  0  0  0  0  0  0  0  0  0  0
   -1.8421   -3.1104   -0.9382 H   0  0  0  0  0  0  0  0  0  0  0  0
   -2.7850   -1.9104   -1.5655 H   0  0  0  0  0  0  0  0  0  0  0  0
   -2.7760    0.1009    2.4893 H   0  0  0  0  0  0  0  0  0  0  0  0
   -1.8175    2.4489   -0.4610 H   0  0  0  0  0  0  0  0  0  0  0  0
   -0.6759    3.7657   -0.0874 H   0  0  0  0  0  0  0  0  0  0  0  0
   -0.7974    3.1392   -1.7436 H   0  0  0  0  0  0  0  0  0  0  0  0
  1 16  1  0  0  0  0
  2  1  1  0  0  0  0
  3  2  2  0  0  0  0
  4  2  1  0  0  0  0
  4  5  2  0  0  0  0
  6  5  1  0  0  0  0
  7  6  1  0  0  0  0
  8  7  2  0  0  0  0
  8  4  1  0  0  0  0
  9  8  1  0  0  0  0
  9 10  1  0  0  0  0
 10 19  1  1  0  0  0
 10 12  1  0  0  0  0
 11 10  1  0  0  0  0
 12 14  1  0  0  0  0
 13 12  2  0  0  0  0
 14 22  1  0  0  0  0
 15 23  1  0  0  0  0
 15  7  1  0  0  0  0
 15 24  1  0  0  0  0
 17  9  1  0  0  0  0
 18  9  1  0  0  0  0
 20 11  1  0  0  0  0
 21 11  1  0  0  0  0
 25 15  1  0  0  0  0
M  END
