omegapdb_1m5f_00.log
 OpenBabel10161801213D
Gaussian 16 # PM6 Opt
 25 25  0  0  1  0  0  0  0  0999 V2000
    3.0804   -2.0524   -0.6629 O   0  0  0  0  0  0  0  0  0  0  0  0
    1.8817   -1.6541   -0.1529 C   0  0  0  0  0  0  0  0  0  0  0  0
    1.0067   -2.4605    0.0817 O   0  0  0  0  0  0  0  0  0  0  0  0
    1.8223   -0.1902    0.0240 C   0  0  0  0  0  0  0  0  0  0  0  0
    2.8258    0.5679    0.4923 N   0  0  0  0  0  0  0  0  0  0  0  0
    2.3977    1.8672    0.5343 O   0  0  0  0  0  0  0  0  0  0  0  0
    1.0650    1.9168    0.0611 C   0  0  0  0  0  0  0  0  0  0  0  0
    0.6606    0.6392   -0.2640 C   0  0  0  0  0  0  0  0  0  0  0  0
   -0.6489    0.1958   -0.7885 C   0  0  0  0  0  0  0  0  0  0  0  0
   -1.6224   -0.1850    0.3490 C   0  0  2  0  0  0  0  0  0  0  0  0
   -1.5149   -1.5808    0.8376 N   0  0  0  0  0  0  0  0  0  0  0  0
   -3.0733    0.0321   -0.1247 C   0  0  0  0  0  0  0  0  0  0  0  0
   -3.4235    0.9035   -0.8839 O   0  0  0  0  0  0  0  0  0  0  0  0
   -4.0275   -0.7866    0.3974 O   0  0  0  0  0  0  0  0  0  0  0  0
    0.4683    3.2509    0.0282 C   0  0  0  0  0  0  0  0  0  0  0  0
    3.1351   -3.0473   -0.7761 H   0  0  0  0  0  0  0  0  0  0  0  0
   -1.1064    1.0069   -1.4094 H   0  0  0  0  0  0  0  0  0  0  0  0
   -0.5244   -0.6566   -1.4914 H   0  0  0  0  0  0  0  0  0  0  0  0
   -1.4710    0.5162    1.2175 H   0  0  0  0  0  0  0  0  0  0  0  0
   -1.2804   -2.2233    0.0760 H   0  0  0  0  0  0  0  0  0  0  0  0
   -0.7514   -1.6712    1.5094 H   0  0  0  0  0  0  0  0  0  0  0  0
   -3.6584   -1.5115    0.9957 H   0  0  0  0  0  0  0  0  0  0  0  0
    0.2553    3.5741   -1.0076 H   0  0  0  0  0  0  0  0  0  0  0  0
    1.1265    4.0163    0.4753 H   0  0  0  0  0  0  0  0  0  0  0  0
   -0.4912    3.2850    0.5745 H   0  0  0  0  0  0  0  0  0  0  0  0
  1  2  1  0  0  0  0
  2  4  1  0  0  0  0
  2  3  2  0  0  0  0
  4  5  2  0  0  0  0
  5  6  1  0  0  0  0
  7  6  1  0  0  0  0
  8  4  1  0  0  0  0
  8  7  2  0  0  0  0
  9  8  1  0  0  0  0
  9 10  1  0  0  0  0
 10 11  1  0  0  0  0
 10 19  1  1  0  0  0
 11 21  1  0  0  0  0
 12 10  1  0  0  0  0
 12 14  1  0  0  0  0
 13 12  2  0  0  0  0
 14 22  1  0  0  0  0
 15  7  1  0  0  0  0
 15 24  1  0  0  0  0
 15 25  1  0  0  0  0
 16  1  1  0  0  0  0
 17  9  1  0  0  0  0
 18  9  1  0  0  0  0
 20 11  1  0  0  0  0
 23 15  1  0  0  0  0
M  END
