omegapdb_1qxw_34.log
 OpenBabel10161801213D
Gaussian 16 # PM6 Opt
 36 36  0  0  1  0  0  0  0  0999 V2000
    3.3646   -2.2456   -0.1166 C   0  0  0  0  0  0  0  0  0  0  0  0
    1.8641   -2.0616   -0.0102 C   0  0  0  0  0  0  0  0  0  0  0  0
    2.8082   -0.9951    0.5508 C   0  0  0  0  0  0  0  0  0  0  0  0
    3.0237    0.2865   -0.1225 N   0  0  0  0  0  0  0  0  0  0  0  0
    2.0886    1.3561    0.2964 C   0  0  0  0  0  0  0  0  0  0  0  0
    0.6546    1.2534   -0.2863 C   0  0  0  0  0  0  0  0  0  0  0  0
   -0.3681    0.4743    0.6014 C   0  0  1  0  0  0  0  0  0  0  0  0
   -0.7700    1.4288    1.6791 N   0  0  0  0  0  0  0  0  0  0  0  0
   -1.5773    0.0052   -0.2247 C   0  0  0  0  0  0  0  0  0  0  0  0
   -2.4328   -1.0214    0.5253 C   0  0  0  0  0  0  0  0  0  0  0  0
   -3.6558   -1.4619   -0.2933 C   0  0  0  0  0  0  0  0  0  0  0  0
   -4.7452   -0.3942   -0.3562 C   0  0  0  0  0  0  0  0  0  0  0  0
    0.7279    0.6031   -1.5600 O   0  0  0  0  0  0  0  0  0  0  0  0
    0.2361    2.5734   -0.6193 O   0  0  0  0  0  0  0  0  0  0  0  0
    3.8617   -2.9953    0.4937 H   0  0  0  0  0  0  0  0  0  0  0  0
    3.8459   -2.1746   -1.0899 H   0  0  0  0  0  0  0  0  0  0  0  0
    1.2928   -2.6936    0.6607 H   0  0  0  0  0  0  0  0  0  0  0  0
    1.2898   -1.8374   -0.9102 H   0  0  0  0  0  0  0  0  0  0  0  0
    2.9014   -0.8983    1.6419 H   0  0  0  0  0  0  0  0  0  0  0  0
    2.9703    0.1762   -1.1469 H   0  0  0  0  0  0  0  0  0  0  0  0
    2.0487    1.4301    1.4020 H   0  0  0  0  0  0  0  0  0  0  0  0
    2.5296    2.3241   -0.0523 H   0  0  0  0  0  0  0  0  0  0  0  0
    0.1621   -0.4245    1.0114 H   0  0  0  0  0  0  0  0  0  0  0  0
   -1.7622    1.3545    1.8876 H   0  0  0  0  0  0  0  0  0  0  0  0
   -0.2662    1.2416    2.5401 H   0  0  0  0  0  0  0  0  0  0  0  0
   -2.1919    0.8731   -0.5339 H   0  0  0  0  0  0  0  0  0  0  0  0
   -1.2055   -0.4382   -1.1763 H   0  0  0  0  0  0  0  0  0  0  0  0
   -2.7667   -0.6140    1.4981 H   0  0  0  0  0  0  0  0  0  0  0  0
   -1.8182   -1.9119    0.7657 H   0  0  0  0  0  0  0  0  0  0  0  0
   -4.0732   -2.3884    0.1495 H   0  0  0  0  0  0  0  0  0  0  0  0
   -3.3422   -1.7374   -1.3200 H   0  0  0  0  0  0  0  0  0  0  0  0
   -5.6025   -0.7382   -0.9462 H   0  0  0  0  0  0  0  0  0  0  0  0
   -5.1166   -0.1348    0.6413 H   0  0  0  0  0  0  0  0  0  0  0  0
   -4.3795    0.5293   -0.8203 H   0  0  0  0  0  0  0  0  0  0  0  0
    0.5854    1.2685   -2.2766 H   0  0  0  0  0  0  0  0  0  0  0  0
   -0.4557    2.9148   -0.0010 H   0  0  0  0  0  0  0  0  0  0  0  0
  1  2  1  0  0  0  0
  1 15  1  0  0  0  0
  1  3  1  0  0  0  0
  2  3  1  0  0  0  0
  2 17  1  0  0  0  0
  3 19  1  0  0  0  0
  4  5  1  0  0  0  0
  4  3  1  0  0  0  0
  5 21  1  0  0  0  0
  6  5  1  0  0  0  0
  6  7  1  0  0  0  0
  7 23  1  1  0  0  0
  7  8  1  0  0  0  0
  8 24  1  0  0  0  0
  8 25  1  0  0  0  0
  9 10  1  0  0  0  0
  9  7  1  0  0  0  0
 10 29  1  0  0  0  0
 10 28  1  0  0  0  0
 11 30  1  0  0  0  0
 11 10  1  0  0  0  0
 12 11  1  0  0  0  0
 12 33  1  0  0  0  0
 13  6  1  0  0  0  0
 14  6  1  0  0  0  0
 14 36  1  0  0  0  0
 16  1  1  0  0  0  0
 18  2  1  0  0  0  0
 20  4  1  0  0  0  0
 22  5  1  0  0  0  0
 26  9  1  0  0  0  0
 27  9  1  0  0  0  0
 31 11  1  0  0  0  0
 32 12  1  0  0  0  0
 34 12  1  0  0  0  0
 35 13  1  0  0  0  0
M  END
