omegapdb_1xom_07.log
 OpenBabel10161801213D
Gaussian 16 # PM6 Opt
 50 52  0  0  1  0  0  0  0  0999 V2000
   -6.2614   -1.4613    0.1294 O   0  0  0  0  0  0  0  0  0  0  0  0
   -6.1595   -0.1428   -0.2481 C   0  0  0  0  0  0  0  0  0  0  0  0
   -7.1585    0.4759   -0.5300 O   0  0  0  0  0  0  0  0  0  0  0  0
   -4.7202    0.3307   -0.2416 C   0  0  1  0  0  0  0  0  0  0  0  0
   -4.1444    0.2501    1.1836 C   0  0  0  0  0  0  0  0  0  0  0  0
   -2.6880    0.7212    1.2051 C   0  0  0  0  0  0  0  0  0  0  0  0
   -1.7984   -0.0752    0.2128 C   0  0  2  0  0  0  0  0  0  0  0  0
   -2.4189   -0.0518   -1.2109 C   0  0  0  0  0  0  0  0  0  0  0  0
   -3.8791   -0.5089   -1.2193 C   0  0  0  0  0  0  0  0  0  0  0  0
   -1.7404   -1.4701    0.6950 C   0  0  0  0  0  0  0  0  0  0  0  0
   -1.7154   -2.5587    1.0787 N   0  0  0  0  0  0  0  0  0  0  0  0
   -0.3861    0.5026    0.1193 C   0  0  0  0  0  0  0  0  0  0  0  0
   -0.1588    1.8694    0.2935 C   0  0  0  0  0  0  0  0  0  0  0  0
    1.1307    2.4054    0.1740 C   0  0  0  0  0  0  0  0  0  0  0  0
    2.2059    1.5754   -0.1360 C   0  0  0  0  0  0  0  0  0  0  0  0
    3.5142    1.9973   -0.2903 O   0  0  0  0  0  0  0  0  0  0  0  0
    3.8078    3.3858   -0.0008 C   0  0  0  0  0  0  0  0  0  0  0  0
    1.9867    0.1795   -0.3290 C   0  0  0  0  0  0  0  0  0  0  0  0
    0.6928   -0.3387   -0.1976 C   0  0  0  0  0  0  0  0  0  0  0  0
    2.9039   -0.7654   -0.6983 O   0  0  0  0  0  0  0  0  0  0  0  0
    4.3425   -0.5020   -0.5542 C   0  0  0  0  0  0  0  0  0  0  0  0
    4.7401   -0.4715    0.9286 C   0  0  0  0  0  0  0  0  0  0  0  0
    5.9420   -1.4190    1.0607 C   0  0  0  0  0  0  0  0  0  0  0  0
    5.8451   -2.4129   -0.1135 C   0  0  0  0  0  0  0  0  0  0  0  0
    4.9701   -1.7517   -1.1924 C   0  0  0  0  0  0  0  0  0  0  0  0
   -7.2011   -1.7885    0.1309 H   0  0  0  0  0  0  0  0  0  0  0  0
   -4.7234    1.4004   -0.5803 H   0  0  0  0  0  0  0  0  0  0  0  0
   -4.2205   -0.7940    1.5581 H   0  0  0  0  0  0  0  0  0  0  0  0
   -4.7482    0.8661    1.8779 H   0  0  0  0  0  0  0  0  0  0  0  0
   -2.6409    1.8012    0.9545 H   0  0  0  0  0  0  0  0  0  0  0  0
   -2.2760    0.6299    2.2300 H   0  0  0  0  0  0  0  0  0  0  0  0
   -2.3360    0.9754   -1.6189 H   0  0  0  0  0  0  0  0  0  0  0  0
   -1.8195   -0.6921   -1.8890 H   0  0  0  0  0  0  0  0  0  0  0  0
   -3.9492   -1.5836   -0.9428 H   0  0  0  0  0  0  0  0  0  0  0  0
   -4.2906   -0.4316   -2.2444 H   0  0  0  0  0  0  0  0  0  0  0  0
   -0.9848    2.5426    0.5243 H   0  0  0  0  0  0  0  0  0  0  0  0
    1.2737    3.4733    0.3185 H   0  0  0  0  0  0  0  0  0  0  0  0
    3.2836    4.0387   -0.7047 H   0  0  0  0  0  0  0  0  0  0  0  0
    3.5615    3.6215    1.0381 H   0  0  0  0  0  0  0  0  0  0  0  0
    4.8923    3.4209   -0.1671 H   0  0  0  0  0  0  0  0  0  0  0  0
    0.5586   -1.4121   -0.3495 H   0  0  0  0  0  0  0  0  0  0  0  0
    4.5726    0.4353   -1.0989 H   0  0  0  0  0  0  0  0  0  0  0  0
    3.8933   -0.8209    1.5502 H   0  0  0  0  0  0  0  0  0  0  0  0
    4.9713    0.5518    1.2649 H   0  0  0  0  0  0  0  0  0  0  0  0
    6.8892   -0.8539    1.0137 H   0  0  0  0  0  0  0  0  0  0  0  0
    5.9383   -1.9415    2.0311 H   0  0  0  0  0  0  0  0  0  0  0  0
    6.8425   -2.6688   -0.5054 H   0  0  0  0  0  0  0  0  0  0  0  0
    5.3882   -3.3611    0.2223 H   0  0  0  0  0  0  0  0  0  0  0  0
    5.5560   -1.4851   -2.0864 H   0  0  0  0  0  0  0  0  0  0  0  0
    4.1712   -2.4385   -1.5388 H   0  0  0  0  0  0  0  0  0  0  0  0
  1 26  1  0  0  0  0
  2  4  1  0  0  0  0
  2  1  1  0  0  0  0
  3  2  2  0  0  0  0
  4 27  1  6  0  0  0
  4  5  1  0  0  0  0
  5  6  1  0  0  0  0
  5 28  1  0  0  0  0
  5 29  1  0  0  0  0
  6 31  1  0  0  0  0
  7 12  1  6  0  0  0
  7 10  1  0  0  0  0
  7  6  1  0  0  0  0
  8  7  1  0  0  0  0
  9  8  1  0  0  0  0
  9 34  1  0  0  0  0
  9  4  1  0  0  0  0
 10 11  3  0  0  0  0
 12 13  2  0  0  0  0
 13 36  1  0  0  0  0
 14 13  1  0  0  0  0
 14 37  1  0  0  0  0
 15 14  2  0  0  0  0
 16 15  1  0  0  0  0
 16 17  1  0  0  0  0
 17 39  1  0  0  0  0
 18 19  2  0  0  0  0
 18 15  1  0  0  0  0
 19 12  1  0  0  0  0
 20 21  1  0  0  0  0
 20 18  1  0  0  0  0
 21 22  1  0  0  0  0
 22 23  1  0  0  0  0
 22 44  1  0  0  0  0
 22 43  1  0  0  0  0
 23 46  1  0  0  0  0
 24 48  1  0  0  0  0
 24 23  1  0  0  0  0
 25 21  1  0  0  0  0
 25 24  1  0  0  0  0
 30  6  1  0  0  0  0
 32  8  1  0  0  0  0
 33  8  1  0  0  0  0
 35  9  1  0  0  0  0
 38 17  1  0  0  0  0
 40 17  1  0  0  0  0
 41 19  1  0  0  0  0
 42 21  1  0  0  0  0
 45 23  1  0  0  0  0
 47 24  1  0  0  0  0
 49 25  1  0  0  0  0
 50 25  1  0  0  0  0
M  END
