omegapdb_1qxw_00.log
 OpenBabel10161801213D
Gaussian 16 # PM6 Opt
 36 36  0  0  1  0  0  0  0  0999 V2000
   -4.0899   -1.8429    0.3399 C   0  0  0  0  0  0  0  0  0  0  0  0
   -5.0587   -0.6791    0.2837 C   0  0  0  0  0  0  0  0  0  0  0  0
   -3.7744   -0.6338   -0.5354 C   0  0  0  0  0  0  0  0  0  0  0  0
   -2.7286    0.2837   -0.0514 N   0  0  0  0  0  0  0  0  0  0  0  0
   -1.3885   -0.0743   -0.6050 C   0  0  0  0  0  0  0  0  0  0  0  0
   -0.3513    0.9188   -0.0346 C   0  0  0  0  0  0  0  0  0  0  0  0
    1.1211    0.6675   -0.4868 C   0  0  1  0  0  0  0  0  0  0  0  0
    1.9234    1.8165    0.0172 N   0  0  0  0  0  0  0  0  0  0  0  0
    1.6093   -0.7122   -0.0020 C   0  0  0  0  0  0  0  0  0  0  0  0
    3.0112   -1.0699   -0.5098 C   0  0  0  0  0  0  0  0  0  0  0  0
    4.1115   -0.7814    0.5219 C   0  0  0  0  0  0  0  0  0  0  0  0
    5.4977   -1.1127   -0.0257 C   0  0  0  0  0  0  0  0  0  0  0  0
   -0.3225    0.9216    1.3851 O   0  0  0  0  0  0  0  0  0  0  0  0
   -0.8112    2.1974   -0.4537 O   0  0  0  0  0  0  0  0  0  0  0  0
   -3.5107   -2.0009    1.2492 H   0  0  0  0  0  0  0  0  0  0  0  0
   -4.3491   -2.7883   -0.1270 H   0  0  0  0  0  0  0  0  0  0  0  0
   -5.1567   -0.0324    1.1553 H   0  0  0  0  0  0  0  0  0  0  0  0
   -6.0119   -0.7887   -0.2260 H   0  0  0  0  0  0  0  0  0  0  0  0
   -3.8451   -0.7520   -1.6263 H   0  0  0  0  0  0  0  0  0  0  0  0
   -2.9605    1.2532   -0.3219 H   0  0  0  0  0  0  0  0  0  0  0  0
   -1.1352   -1.1067   -0.2735 H   0  0  0  0  0  0  0  0  0  0  0  0
   -1.3433   -0.0586   -1.7149 H   0  0  0  0  0  0  0  0  0  0  0  0
    1.1453    0.7089   -1.6081 H   0  0  0  0  0  0  0  0  0  0  0  0
    1.9181    1.8250    1.0385 H   0  0  0  0  0  0  0  0  0  0  0  0
    2.8927    1.7270   -0.2781 H   0  0  0  0  0  0  0  0  0  0  0  0
    0.8939   -1.4914   -0.3315 H   0  0  0  0  0  0  0  0  0  0  0  0
    1.5672   -0.7451    1.1072 H   0  0  0  0  0  0  0  0  0  0  0  0
    3.0387   -2.1460   -0.7747 H   0  0  0  0  0  0  0  0  0  0  0  0
    3.2309   -0.5366   -1.4550 H   0  0  0  0  0  0  0  0  0  0  0  0
    4.0787    0.2794    0.8352 H   0  0  0  0  0  0  0  0  0  0  0  0
    3.9235   -1.3694    1.4426 H   0  0  0  0  0  0  0  0  0  0  0  0
    5.7361   -0.5190   -0.9155 H   0  0  0  0  0  0  0  0  0  0  0  0
    5.5805   -2.1692   -0.3058 H   0  0  0  0  0  0  0  0  0  0  0  0
    6.2760   -0.9117    0.7196 H   0  0  0  0  0  0  0  0  0  0  0  0
   -1.2371    0.9828    1.7568 H   0  0  0  0  0  0  0  0  0  0  0  0
   -0.1543    2.9051   -0.2347 H   0  0  0  0  0  0  0  0  0  0  0  0
  1 15  1  0  0  0  0
  2  1  1  0  0  0  0
  2 17  1  0  0  0  0
  3  4  1  0  0  0  0
  3  2  1  0  0  0  0
  3  1  1  0  0  0  0
  5 21  1  0  0  0  0
  5  4  1  0  0  0  0
  5  6  1  0  0  0  0
  6 13  1  0  0  0  0
  7 23  1  6  0  0  0
  7  6  1  0  0  0  0
  7  9  1  0  0  0  0
  7  8  1  0  0  0  0
  8 24  1  0  0  0  0
  9 27  1  0  0  0  0
 10  9  1  0  0  0  0
 10 11  1  0  0  0  0
 11 30  1  0  0  0  0
 11 31  1  0  0  0  0
 12 11  1  0  0  0  0
 12 34  1  0  0  0  0
 13 35  1  0  0  0  0
 14 36  1  0  0  0  0
 14  6  1  0  0  0  0
 16  1  1  0  0  0  0
 18  2  1  0  0  0  0
 19  3  1  0  0  0  0
 20  4  1  0  0  0  0
 22  5  1  0  0  0  0
 25  8  1  0  0  0  0
 26  9  1  0  0  0  0
 28 10  1  0  0  0  0
 29 10  1  0  0  0  0
 32 12  1  0  0  0  0
 33 12  1  0  0  0  0
M  END
