omegapdb_1qxw_24.log
 OpenBabel10161801213D
Gaussian 16 # PM6 Opt
 36 36  0  0  1  0  0  0  0  0999 V2000
   -4.2001    0.6462   -0.3866 C   0  0  0  0  0  0  0  0  0  0  0  0
   -4.4105   -0.7759    0.0942 C   0  0  0  0  0  0  0  0  0  0  0  0
   -3.0299   -0.1392    0.1963 C   0  0  0  0  0  0  0  0  0  0  0  0
   -2.0168   -0.6414   -0.7501 N   0  0  0  0  0  0  0  0  0  0  0  0
   -0.9776    0.3621   -1.0615 C   0  0  0  0  0  0  0  0  0  0  0  0
    0.0376    0.6814    0.0584 C   0  0  0  0  0  0  0  0  0  0  0  0
    0.9120   -0.4640    0.6455 C   0  0  1  0  0  0  0  0  0  0  0  0
    0.0219   -1.3675    1.4376 N   0  0  0  0  0  0  0  0  0  0  0  0
    1.6121   -1.2970   -0.4443 C   0  0  0  0  0  0  0  0  0  0  0  0
    2.7391   -0.5455   -1.1618 C   0  0  0  0  0  0  0  0  0  0  0  0
    4.0411   -0.4493   -0.3534 C   0  0  0  0  0  0  0  0  0  0  0  0
    4.0489    0.7024    0.6500 C   0  0  0  0  0  0  0  0  0  0  0  0
   -0.5598    1.2760    1.2171 O   0  0  0  0  0  0  0  0  0  0  0  0
    0.8382    1.7176   -0.5128 O   0  0  0  0  0  0  0  0  0  0  0  0
   -4.6215    1.4749    0.1733 H   0  0  0  0  0  0  0  0  0  0  0  0
   -4.2224    0.8449   -1.4574 H   0  0  0  0  0  0  0  0  0  0  0  0
   -4.5782   -1.5609   -0.6427 H   0  0  0  0  0  0  0  0  0  0  0  0
   -4.9782   -0.9654    1.0002 H   0  0  0  0  0  0  0  0  0  0  0  0
   -2.6536    0.1440    1.1914 H   0  0  0  0  0  0  0  0  0  0  0  0
   -1.5850   -1.4968   -0.3620 H   0  0  0  0  0  0  0  0  0  0  0  0
   -0.4120   -0.0056   -1.9519 H   0  0  0  0  0  0  0  0  0  0  0  0
   -1.4593    1.3111   -1.3924 H   0  0  0  0  0  0  0  0  0  0  0  0
    1.7034    0.0248    1.2889 H   0  0  0  0  0  0  0  0  0  0  0  0
    0.5749   -2.0433    1.9566 H   0  0  0  0  0  0  0  0  0  0  0  0
   -0.5122   -0.8241    2.1176 H   0  0  0  0  0  0  0  0  0  0  0  0
    2.0128   -2.2263    0.0096 H   0  0  0  0  0  0  0  0  0  0  0  0
    0.8637   -1.6461   -1.1851 H   0  0  0  0  0  0  0  0  0  0  0  0
    2.9512   -1.0636   -2.1189 H   0  0  0  0  0  0  0  0  0  0  0  0
    2.3926    0.4694   -1.4537 H   0  0  0  0  0  0  0  0  0  0  0  0
    4.2299   -1.4049    0.1740 H   0  0  0  0  0  0  0  0  0  0  0  0
    4.8914   -0.3248   -1.0545 H   0  0  0  0  0  0  0  0  0  0  0  0
    3.2036    0.6242    1.3521 H   0  0  0  0  0  0  0  0  0  0  0  0
    3.9814    1.6737    0.1476 H   0  0  0  0  0  0  0  0  0  0  0  0
    4.9702    0.7052    1.2434 H   0  0  0  0  0  0  0  0  0  0  0  0
   -1.1539    2.0159    0.9756 H   0  0  0  0  0  0  0  0  0  0  0  0
    1.5029    2.0586    0.1197 H   0  0  0  0  0  0  0  0  0  0  0  0
  1  2  1  0  0  0  0
  1 15  1  0  0  0  0
  1  3  1  0  0  0  0
  2  3  1  0  0  0  0
  2 18  1  0  0  0  0
  3 19  1  0  0  0  0
  4 20  1  0  0  0  0
  4  3  1  0  0  0  0
  5  4  1  0  0  0  0
  5  6  1  0  0  0  0
  6  7  1  0  0  0  0
  6 13  1  0  0  0  0
  7 23  1  1  0  0  0
  7  8  1  0  0  0  0
  8 24  1  0  0  0  0
  8 25  1  0  0  0  0
  9 26  1  0  0  0  0
  9  7  1  0  0  0  0
 10  9  1  0  0  0  0
 10 11  1  0  0  0  0
 11 30  1  0  0  0  0
 11 12  1  0  0  0  0
 12 34  1  0  0  0  0
 12 32  1  0  0  0  0
 14  6  1  0  0  0  0
 14 36  1  0  0  0  0
 16  1  1  0  0  0  0
 17  2  1  0  0  0  0
 21  5  1  0  0  0  0
 22  5  1  0  0  0  0
 27  9  1  0  0  0  0
 28 10  1  0  0  0  0
 29 10  1  0  0  0  0
 31 11  1  0  0  0  0
 33 12  1  0  0  0  0
 35 13  1  0  0  0  0
M  END
