omegapdb_1z1r_17.log
 OpenBabel10161801213D
Gaussian 16 # PM6 Opt
 66 68  0  0  1  0  0  0  0  0999 V2000
    0.5911   -1.7249   -0.2158 C   0  0  2  0  0  0  0  0  0  0  0  0
   -0.1189   -2.9819    0.3430 C   0  0  0  0  0  0  0  0  0  0  0  0
   -1.4564   -2.6173    0.9213 C   0  0  0  0  0  0  0  0  0  0  0  0
   -2.6353   -3.0882    0.3217 C   0  0  0  0  0  0  0  0  0  0  0  0
   -3.8735   -2.5655    0.6960 C   0  0  0  0  0  0  0  0  0  0  0  0
   -3.9078   -1.5687    1.6804 C   0  0  0  0  0  0  0  0  0  0  0  0
   -2.7571   -1.1672    2.3728 C   0  0  0  0  0  0  0  0  0  0  0  0
   -1.5310   -1.7090    1.9927 C   0  0  0  0  0  0  0  0  0  0  0  0
   -5.1541   -0.9974    1.9408 O   0  0  0  0  0  0  0  0  0  0  0  0
   -5.2078    0.4366    1.7025 C   0  0  0  0  0  0  0  0  0  0  0  0
   -4.9987    0.7223    0.2114 C   0  0  0  0  0  0  0  0  0  0  0  0
   -4.6698    2.1852   -0.0757 C   0  0  0  0  0  0  0  0  0  0  0  0
   -3.3979    2.6638    0.5934 C   0  0  0  0  0  0  0  0  0  0  0  0
   -3.4019    3.4638    1.5150 O   0  0  0  0  0  0  0  0  0  0  0  0
   -2.1443    2.2511    0.1180 N   0  0  0  0  0  0  0  0  0  0  0  0
   -1.8830    1.1822   -0.8567 C   0  0  2  0  0  0  0  0  0  0  0  0
   -0.5771    0.4656   -0.4144 C   0  0  0  0  0  0  0  0  0  0  0  0
    0.2578    1.0382    0.2773 O   0  0  0  0  0  0  0  0  0  0  0  0
   -0.3939   -0.8238   -0.8763 N   0  0  0  0  0  0  0  0  0  0  0  0
   -1.7029    1.7632   -2.2753 C   0  0  0  0  0  0  0  0  0  0  0  0
   -1.9333    0.7026   -3.3287 C   0  0  0  0  0  0  0  0  0  0  0  0
   -2.1985   -0.4658   -3.0768 O   0  0  0  0  0  0  0  0  0  0  0  0
   -1.8381    1.1162   -4.6509 N   0  0  0  0  0  0  0  0  0  0  0  0
    1.6960   -2.1051   -1.2419 C   0  0  2  0  0  0  0  0  0  0  0  0
    2.5144   -3.1339   -0.7070 O   0  0  0  0  0  0  0  0  0  0  0  0
    2.5526   -0.8627   -1.6376 C   0  0  0  0  0  0  0  0  0  0  0  0
    3.9876   -0.9665   -1.3015 N   0  0  0  0  0  0  0  0  0  0  0  0
    4.4063   -0.8055    0.3654 S   0  0  0  0  0  0  0  0  0  0  0  0
    5.7610   -1.3017    0.4728 O   0  0  0  0  0  0  0  0  0  0  0  0
    3.3491   -1.4784    1.1342 O   0  0  0  0  0  0  0  0  0  0  0  0
    4.3492    0.8835    0.6726 C   0  0  0  0  0  0  0  0  0  0  0  0
    5.5203    1.6425    0.5447 C   0  0  0  0  0  0  0  0  0  0  0  0
    5.4945    3.0147    0.8007 C   0  0  0  0  0  0  0  0  0  0  0  0
    4.2966    3.6292    1.1876 C   0  0  0  0  0  0  0  0  0  0  0  0
    3.1288    2.8725    1.3183 C   0  0  0  0  0  0  0  0  0  0  0  0
    3.1543    1.4973    1.0626 C   0  0  0  0  0  0  0  0  0  0  0  0
    1.0788   -1.1760    0.6459 H   0  0  0  0  0  0  0  0  0  0  0  0
   -0.2130   -3.7583   -0.4432 H   0  0  0  0  0  0  0  0  0  0  0  0
    0.5327   -3.4482    1.1144 H   0  0  0  0  0  0  0  0  0  0  0  0
   -2.5870   -3.8444   -0.4614 H   0  0  0  0  0  0  0  0  0  0  0  0
   -4.7977   -2.8999    0.2299 H   0  0  0  0  0  0  0  0  0  0  0  0
   -2.8237   -0.4431    3.1819 H   0  0  0  0  0  0  0  0  0  0  0  0
   -0.6202   -1.4016    2.5090 H   0  0  0  0  0  0  0  0  0  0  0  0
   -6.2317    0.6714    2.0470 H   0  0  0  0  0  0  0  0  0  0  0  0
   -4.4727    0.9494    2.3467 H   0  0  0  0  0  0  0  0  0  0  0  0
   -4.1881    0.0670   -0.1899 H   0  0  0  0  0  0  0  0  0  0  0  0
   -5.9061    0.4242   -0.3535 H   0  0  0  0  0  0  0  0  0  0  0  0
   -4.6194    2.3565   -1.1696 H   0  0  0  0  0  0  0  0  0  0  0  0
   -5.5003    2.8368    0.2851 H   0  0  0  0  0  0  0  0  0  0  0  0
   -1.3112    2.6232    0.6039 H   0  0  0  0  0  0  0  0  0  0  0  0
   -2.7408    0.4391   -0.8586 H   0  0  0  0  0  0  0  0  0  0  0  0
   -1.1020   -1.2721   -1.4769 H   0  0  0  0  0  0  0  0  0  0  0  0
   -0.6939    2.2182   -2.3793 H   0  0  0  0  0  0  0  0  0  0  0  0
   -2.4068    2.6125   -2.4180 H   0  0  0  0  0  0  0  0  0  0  0  0
   -1.6167    2.0548   -4.9291 H   0  0  0  0  0  0  0  0  0  0  0  0
   -1.9829    0.4479   -5.3956 H   0  0  0  0  0  0  0  0  0  0  0  0
    1.2658   -2.5818   -2.1524 H   0  0  0  0  0  0  0  0  0  0  0  0
    2.7468   -2.9510    0.2626 H   0  0  0  0  0  0  0  0  0  0  0  0
    2.4754   -0.7130   -2.7398 H   0  0  0  0  0  0  0  0  0  0  0  0
    2.1339    0.0687   -1.1880 H   0  0  0  0  0  0  0  0  0  0  0  0
    4.4161   -1.7753   -1.7845 H   0  0  0  0  0  0  0  0  0  0  0  0
    6.4596    1.1590    0.2526 H   0  0  0  0  0  0  0  0  0  0  0  0
    6.4044    3.6048    0.7035 H   0  0  0  0  0  0  0  0  0  0  0  0
    4.2769    4.7010    1.3894 H   0  0  0  0  0  0  0  0  0  0  0  0
    2.1944    3.3461    1.6201 H   0  0  0  0  0  0  0  0  0  0  0  0
    2.2279    0.9126    1.1730 H   0  0  0  0  0  0  0  0  0  0  0  0
  1  2  1  0  0  0  0
  1 37  1  1  0  0  0
  2  3  1  0  0  0  0
  2 39  1  0  0  0  0
  3  8  2  0  0  0  0
  4  5  2  0  0  0  0
  4  3  1  0  0  0  0
  5  6  1  0  0  0  0
  6  9  1  0  0  0  0
  6  7  2  0  0  0  0
  7 42  1  0  0  0  0
  8  7  1  0  0  0  0
  8 43  1  0  0  0  0
 10  9  1  0  0  0  0
 10 44  1  0  0  0  0
 10 45  1  0  0  0  0
 11 10  1  0  0  0  0
 12 11  1  0  0  0  0
 12 49  1  0  0  0  0
 12 13  1  0  0  0  0
 13 14  2  0  0  0  0
 15 13  1  0  0  0  0
 15 50  1  0  0  0  0
 16 51  1  1  0  0  0
 16 17  1  0  0  0  0
 16 15  1  0  0  0  0
 17 18  2  0  0  0  0
 19 17  1  0  0  0  0
 19  1  1  0  0  0  0
 20 16  1  0  0  0  0
 21 22  2  0  0  0  0
 21 20  1  0  0  0  0
 23 21  1  0  0  0  0
 24 57  1  6  0  0  0
 24 25  1  0  0  0  0
 24  1  1  0  0  0  0
 25 58  1  0  0  0  0
 26 27  1  0  0  0  0
 26 24  1  0  0  0  0
 26 60  1  0  0  0  0
 27 28  1  0  0  0  0
 28 29  2  0  0  0  0
 28 31  1  0  0  0  0
 28 30  2  0  0  0  0
 31 36  1  0  0  0  0
 32 31  2  0  0  0  0
 32 33  1  0  0  0  0
 33 34  2  0  0  0  0
 34 35  1  0  0  0  0
 34 64  1  0  0  0  0
 35 65  1  0  0  0  0
 36 66  1  0  0  0  0
 36 35  2  0  0  0  0
 38  2  1  0  0  0  0
 40  4  1  0  0  0  0
 41  5  1  0  0  0  0
 46 11  1  0  0  0  0
 47 11  1  0  0  0  0
 48 12  1  0  0  0  0
 52 19  1  0  0  0  0
 53 20  1  0  0  0  0
 54 20  1  0  0  0  0
 55 23  1  0  0  0  0
 56 23  1  0  0  0  0
 59 26  1  0  0  0  0
 61 27  1  0  0  0  0
 62 32  1  0  0  0  0
 63 33  1  0  0  0  0
M  END
