omegapdb_1v2k_11.log
 OpenBabel10161801213D
Gaussian 16 # PM6 Opt
 61 65  0  0  0  0  0  0  0  0999 V2000
    9.5745   -0.8215   -1.4490 N   0  0  0  0  0  0  0  0  0  0  0  0
    9.4416   -0.5148   -0.1297 C   0  0  0  0  0  0  0  0  0  0  0  0
    8.2856   -0.7816    0.6091 C   0  0  0  0  0  0  0  0  0  0  0  0
    7.1897   -1.4098   -0.0288 C   0  0  0  0  0  0  0  0  0  0  0  0
    7.3199   -1.7231   -1.4027 C   0  0  0  0  0  0  0  0  0  0  0  0
    8.5158   -1.4185   -2.0597 C   0  0  0  0  0  0  0  0  0  0  0  0
    6.0561   -1.8367    0.7139 N   0  0  0  0  0  0  0  0  0  0  0  0
    4.7885   -2.0851   -0.0343 C   0  0  0  0  0  0  0  0  0  0  0  0
    3.9881   -0.7950   -0.2794 C   0  0  0  0  0  0  0  0  0  0  0  0
    3.6913   -0.0803    1.0513 C   0  0  0  0  0  0  0  0  0  0  0  0
    4.9959    0.1560    1.8348 C   0  0  0  0  0  0  0  0  0  0  0  0
    5.7739   -1.1551    2.0133 C   0  0  0  0  0  0  0  0  0  0  0  0
    3.0226    1.2707    0.7805 C   0  0  0  0  0  0  0  0  0  0  0  0
    3.6132    2.3368    0.8798 O   0  0  0  0  0  0  0  0  0  0  0  0
    1.6827    1.2783    0.3779 N   0  0  0  0  0  0  0  0  0  0  0  0
    0.9946    2.5863    0.1893 C   0  0  0  0  0  0  0  0  0  0  0  0
   -0.4338    2.5227    0.7529 C   0  0  0  0  0  0  0  0  0  0  0  0
   -1.2687    1.4739    0.1004 N   0  0  0  0  0  0  0  0  0  0  0  0
   -0.4725    0.3433   -0.4632 C   0  0  0  0  0  0  0  0  0  0  0  0
    0.8083    0.0784    0.3515 C   0  0  0  0  0  0  0  0  0  0  0  0
   -2.5316    2.0412   -0.9491 S   0  0  0  0  0  0  0  0  0  0  0  0
   -2.2250    1.5860   -2.2938 O   0  0  0  0  0  0  0  0  0  0  0  0
   -2.6930    3.4537   -0.6730 O   0  0  0  0  0  0  0  0  0  0  0  0
   -3.9149    1.1638   -0.3872 C   0  0  0  0  0  0  0  0  0  0  0  0
   -4.4855    0.1945   -1.1769 C   0  0  0  0  0  0  0  0  0  0  0  0
   -5.6304   -0.5266   -0.7209 C   0  0  0  0  0  0  0  0  0  0  0  0
   -6.1711   -0.2259    0.5597 C   0  0  0  0  0  0  0  0  0  0  0  0
   -5.5599    0.7934    1.3549 C   0  0  0  0  0  0  0  0  0  0  0  0
   -4.4605    1.4723    0.8899 C   0  0  0  0  0  0  0  0  0  0  0  0
   -7.3169   -0.9495    1.0216 C   0  0  0  0  0  0  0  0  0  0  0  0
   -7.8650   -1.9127    0.2148 C   0  0  0  0  0  0  0  0  0  0  0  0
   -7.3410   -2.2260   -1.0728 C   0  0  0  0  0  0  0  0  0  0  0  0
   -6.2436   -1.5411   -1.5268 C   0  0  0  0  0  0  0  0  0  0  0  0
   -9.2439   -2.7960    0.7537 Cl  0  0  0  0  0  0  0  0  0  0  0  0
   10.3087   -0.0321    0.3372 H   0  0  0  0  0  0  0  0  0  0  0  0
    8.2405   -0.5130    1.6613 H   0  0  0  0  0  0  0  0  0  0  0  0
    6.5114   -2.2048   -1.9452 H   0  0  0  0  0  0  0  0  0  0  0  0
    8.6487   -1.6534   -3.1226 H   0  0  0  0  0  0  0  0  0  0  0  0
    4.1920   -2.8095    0.5647 H   0  0  0  0  0  0  0  0  0  0  0  0
    5.0132   -2.5909   -1.0008 H   0  0  0  0  0  0  0  0  0  0  0  0
    4.5617   -0.1188   -0.9484 H   0  0  0  0  0  0  0  0  0  0  0  0
    3.0461   -1.0267   -0.8144 H   0  0  0  0  0  0  0  0  0  0  0  0
    3.0161   -0.7153    1.6750 H   0  0  0  0  0  0  0  0  0  0  0  0
    5.6178    0.9093    1.3018 H   0  0  0  0  0  0  0  0  0  0  0  0
    4.7756    0.6121    2.8184 H   0  0  0  0  0  0  0  0  0  0  0  0
    5.1985   -1.8733    2.6397 H   0  0  0  0  0  0  0  0  0  0  0  0
    6.7286   -0.9678    2.5554 H   0  0  0  0  0  0  0  0  0  0  0  0
    0.9901    2.8353   -0.8964 H   0  0  0  0  0  0  0  0  0  0  0  0
    1.5839    3.3921    0.6934 H   0  0  0  0  0  0  0  0  0  0  0  0
   -0.9164    3.5279    0.6686 H   0  0  0  0  0  0  0  0  0  0  0  0
   -0.4055    2.2800    1.8419 H   0  0  0  0  0  0  0  0  0  0  0  0
   -0.2046    0.5203   -1.5352 H   0  0  0  0  0  0  0  0  0  0  0  0
   -1.1159   -0.5664   -0.4314 H   0  0  0  0  0  0  0  0  0  0  0  0
    0.5396   -0.2159    1.3928 H   0  0  0  0  0  0  0  0  0  0  0  0
    1.3608   -0.7730   -0.1135 H   0  0  0  0  0  0  0  0  0  0  0  0
   -4.0760   -0.0366   -2.1697 H   0  0  0  0  0  0  0  0  0  0  0  0
   -5.9857    1.0231    2.3317 H   0  0  0  0  0  0  0  0  0  0  0  0
   -3.9984    2.2600    1.4928 H   0  0  0  0  0  0  0  0  0  0  0  0
   -7.7340   -0.7218    2.0029 H   0  0  0  0  0  0  0  0  0  0  0  0
   -7.8215   -3.0003   -1.6722 H   0  0  0  0  0  0  0  0  0  0  0  0
   -5.8208   -1.7559   -2.5100 H   0  0  0  0  0  0  0  0  0  0  0  0
  1  2  1  0  0  0  0
  2 35  1  0  0  0  0
  2  3  2  0  0  0  0
  3 36  1  0  0  0  0
  4  3  1  0  0  0  0
  4  7  1  0  0  0  0
  5  4  2  0  0  0  0
  6  1  2  0  0  0  0
  6  5  1  0  0  0  0
  7 12  1  0  0  0  0
  8 39  1  0  0  0  0
  8  7  1  0  0  0  0
  9  8  1  0  0  0  0
  9 10  1  0  0  0  0
 10 43  1  0  0  0  0
 10 11  1  0  0  0  0
 11 12  1  0  0  0  0
 11 45  1  0  0  0  0
 12 47  1  0  0  0  0
 12 46  1  0  0  0  0
 13 14  2  0  0  0  0
 13 10  1  0  0  0  0
 15 13  1  0  0  0  0
 16 15  1  0  0  0  0
 16 49  1  0  0  0  0
 16 17  1  0  0  0  0
 17 51  1  0  0  0  0
 18 17  1  0  0  0  0
 19 53  1  0  0  0  0
 19 18  1  0  0  0  0
 19 20  1  0  0  0  0
 20 15  1  0  0  0  0
 20 54  1  0  0  0  0
 21 23  2  0  0  0  0
 21 24  1  0  0  0  0
 21 18  1  0  0  0  0
 22 21  2  0  0  0  0
 24 29  2  0  0  0  0
 25 26  2  0  0  0  0
 25 24  1  0  0  0  0
 26 27  1  0  0  0  0
 27 30  1  0  0  0  0
 27 28  2  0  0  0  0
 28 57  1  0  0  0  0
 29 28  1  0  0  0  0
 29 58  1  0  0  0  0
 30 59  1  0  0  0  0
 31 34  1  0  0  0  0
 31 30  2  0  0  0  0
 32 31  1  0  0  0  0
 33 32  2  0  0  0  0
 33 26  1  0  0  0  0
 37  5  1  0  0  0  0
 38  6  1  0  0  0  0
 40  8  1  0  0  0  0
 41  9  1  0  0  0  0
 42  9  1  0  0  0  0
 44 11  1  0  0  0  0
 48 16  1  0  0  0  0
 50 17  1  0  0  0  0
 52 19  1  0  0  0  0
 55 20  1  0  0  0  0
 56 25  1  0  0  0  0
 60 32  1  0  0  0  0
 61 33  1  0  0  0  0
M  END
