omegapdb_1qxw_04.log
 OpenBabel10161801213D
Gaussian 16 # PM6 Opt
 36 36  0  0  1  0  0  0  0  0999 V2000
   -4.1531   -1.6259   -0.9341 C   0  0  0  0  0  0  0  0  0  0  0  0
   -4.9534   -1.0332    0.2091 C   0  0  0  0  0  0  0  0  0  0  0  0
   -3.4509   -1.2150    0.3620 C   0  0  0  0  0  0  0  0  0  0  0  0
   -2.6042   -0.0244    0.4506 N   0  0  0  0  0  0  0  0  0  0  0  0
   -1.2426   -0.2710   -0.1153 C   0  0  0  0  0  0  0  0  0  0  0  0
   -0.4126    1.0234    0.0354 C   0  0  0  0  0  0  0  0  0  0  0  0
    1.0498    0.9330   -0.5013 C   0  0  1  0  0  0  0  0  0  0  0  0
    1.6144    2.3097   -0.4271 N   0  0  0  0  0  0  0  0  0  0  0  0
    1.8524   -0.1231    0.2831 C   0  0  0  0  0  0  0  0  0  0  0  0
    3.2319   -0.3785   -0.3321 C   0  0  0  0  0  0  0  0  0  0  0  0
    3.9930   -1.4675    0.4384 C   0  0  0  0  0  0  0  0  0  0  0  0
    5.3723   -1.7240   -0.1636 C   0  0  0  0  0  0  0  0  0  0  0  0
   -0.3006    1.4451    1.3866 O   0  0  0  0  0  0  0  0  0  0  0  0
   -1.1599    2.0139   -0.6590 O   0  0  0  0  0  0  0  0  0  0  0  0
   -4.0076   -1.0429   -1.8397 H   0  0  0  0  0  0  0  0  0  0  0  0
   -4.2600   -2.6790   -1.1770 H   0  0  0  0  0  0  0  0  0  0  0  0
   -5.3763   -0.0357    0.1070 H   0  0  0  0  0  0  0  0  0  0  0  0
   -5.6249   -1.6667    0.7844 H   0  0  0  0  0  0  0  0  0  0  0  0
   -3.0818   -2.0098    1.0283 H   0  0  0  0  0  0  0  0  0  0  0  0
   -3.0296    0.7789   -0.0396 H   0  0  0  0  0  0  0  0  0  0  0  0
   -0.7572   -1.0887    0.4633 H   0  0  0  0  0  0  0  0  0  0  0  0
   -1.2582   -0.5812   -1.1823 H   0  0  0  0  0  0  0  0  0  0  0  0
    0.9982    0.6488   -1.5858 H   0  0  0  0  0  0  0  0  0  0  0  0
    2.5563    2.3295   -0.8072 H   0  0  0  0  0  0  0  0  0  0  0  0
    1.6734    2.6128    0.5464 H   0  0  0  0  0  0  0  0  0  0  0  0
    1.2830   -1.0726    0.3260 H   0  0  0  0  0  0  0  0  0  0  0  0
    1.9492    0.1994    1.3409 H   0  0  0  0  0  0  0  0  0  0  0  0
    3.1261   -0.6769   -1.3934 H   0  0  0  0  0  0  0  0  0  0  0  0
    3.8295    0.5531   -0.3395 H   0  0  0  0  0  0  0  0  0  0  0  0
    4.0977   -1.1733    1.5015 H   0  0  0  0  0  0  0  0  0  0  0  0
    3.4065   -2.4072    0.4423 H   0  0  0  0  0  0  0  0  0  0  0  0
    5.9064   -2.5044    0.3907 H   0  0  0  0  0  0  0  0  0  0  0  0
    5.9973   -0.8240   -0.1435 H   0  0  0  0  0  0  0  0  0  0  0  0
    5.3046   -2.0527   -1.2070 H   0  0  0  0  0  0  0  0  0  0  0  0
   -1.1836    1.4498    1.8311 H   0  0  0  0  0  0  0  0  0  0  0  0
   -0.6573    2.8649   -0.7217 H   0  0  0  0  0  0  0  0  0  0  0  0
  1  2  1  0  0  0  0
  1  3  1  0  0  0  0
  2  3  1  0  0  0  0
  2 18  1  0  0  0  0
  3  4  1  0  0  0  0
  3 19  1  0  0  0  0
  5  6  1  0  0  0  0
  5  4  1  0  0  0  0
  5 21  1  0  0  0  0
  6 13  1  0  0  0  0
  7 23  1  6  0  0  0
  7  8  1  0  0  0  0
  7  6  1  0  0  0  0
  7  9  1  0  0  0  0
  8 25  1  0  0  0  0
  9 26  1  0  0  0  0
  9 27  1  0  0  0  0
 10  9  1  0  0  0  0
 10 11  1  0  0  0  0
 11 31  1  0  0  0  0
 11 30  1  0  0  0  0
 12 33  1  0  0  0  0
 12 32  1  0  0  0  0
 12 11  1  0  0  0  0
 13 35  1  0  0  0  0
 14  6  1  0  0  0  0
 15  1  1  0  0  0  0
 16  1  1  0  0  0  0
 17  2  1  0  0  0  0
 20  4  1  0  0  0  0
 22  5  1  0  0  0  0
 24  8  1  0  0  0  0
 28 10  1  0  0  0  0
 29 10  1  0  0  0  0
 34 12  1  0  0  0  0
 36 14  1  0  0  0  0
M  END
