omegapdb_1z1r_25.log
 OpenBabel10161801213D
Gaussian 16 # PM6 Opt
 66 68  0  0  1  0  0  0  0  0999 V2000
    0.0466   -2.8583   -1.0314 C   0  0  2  0  0  0  0  0  0  0  0  0
   -0.3175   -2.2754   -2.4157 C   0  0  0  0  0  0  0  0  0  0  0  0
   -1.1415   -1.0209   -2.3935 C   0  0  0  0  0  0  0  0  0  0  0  0
   -2.5307   -1.0840   -2.2124 C   0  0  0  0  0  0  0  0  0  0  0  0
   -3.2866    0.0858   -2.1211 C   0  0  0  0  0  0  0  0  0  0  0  0
   -2.6311    1.3184   -2.2365 C   0  0  0  0  0  0  0  0  0  0  0  0
   -1.2530    1.4054   -2.4944 C   0  0  0  0  0  0  0  0  0  0  0  0
   -0.5147    0.2275   -2.5647 C   0  0  0  0  0  0  0  0  0  0  0  0
   -3.2963    2.5314   -2.1243 O   0  0  0  0  0  0  0  0  0  0  0  0
   -4.1180    2.6857   -0.9330 C   0  0  0  0  0  0  0  0  0  0  0  0
   -3.2454    2.9170    0.3024 C   0  0  0  0  0  0  0  0  0  0  0  0
   -2.5729    1.6525    0.8488 C   0  0  0  0  0  0  0  0  0  0  0  0
   -3.5901    0.6243    1.2798 C   0  0  0  0  0  0  0  0  0  0  0  0
   -4.7503    0.8771    1.5661 O   0  0  0  0  0  0  0  0  0  0  0  0
   -3.1874   -0.7139    1.4264 N   0  0  0  0  0  0  0  0  0  0  0  0
   -1.8746   -1.2821    1.0813 C   0  0  2  0  0  0  0  0  0  0  0  0
   -2.1170   -2.6711    0.4588 C   0  0  0  0  0  0  0  0  0  0  0  0
   -3.1490   -3.2886    0.6933 O   0  0  0  0  0  0  0  0  0  0  0  0
   -1.1425   -3.3455   -0.2846 N   0  0  0  0  0  0  0  0  0  0  0  0
   -1.0296   -1.4867    2.3597 C   0  0  0  0  0  0  0  0  0  0  0  0
   -0.5036   -0.1672    2.8742 C   0  0  0  0  0  0  0  0  0  0  0  0
    0.4900    0.3874    2.4117 O   0  0  0  0  0  0  0  0  0  0  0  0
   -1.1837    0.4128    3.9331 N   0  0  0  0  0  0  0  0  0  0  0  0
    0.9820   -1.9786   -0.1614 C   0  0  2  0  0  0  0  0  0  0  0  0
    0.5431   -0.6195   -0.2432 O   0  0  0  0  0  0  0  0  0  0  0  0
    2.4482   -2.0473   -0.6621 C   0  0  0  0  0  0  0  0  0  0  0  0
    3.3277   -1.5345    0.4101 N   0  0  0  0  0  0  0  0  0  0  0  0
    4.5718   -0.4101   -0.0150 S   0  0  0  0  0  0  0  0  0  0  0  0
    4.9245   -0.6492   -1.4025 O   0  0  0  0  0  0  0  0  0  0  0  0
    5.5611   -0.5915    1.0244 O   0  0  0  0  0  0  0  0  0  0  0  0
    3.8077    1.1303    0.0986 C   0  0  0  0  0  0  0  0  0  0  0  0
    2.9982    1.4587    1.1896 C   0  0  0  0  0  0  0  0  0  0  0  0
    2.4005    2.7224    1.2592 C   0  0  0  0  0  0  0  0  0  0  0  0
    2.6188    3.6563    0.2428 C   0  0  0  0  0  0  0  0  0  0  0  0
    3.4290    3.3277   -0.8514 C   0  0  0  0  0  0  0  0  0  0  0  0
    4.0193    2.0645   -0.9243 C   0  0  0  0  0  0  0  0  0  0  0  0
    0.6360   -3.8066   -1.2406 H   0  0  0  0  0  0  0  0  0  0  0  0
   -0.8497   -3.0545   -3.0040 H   0  0  0  0  0  0  0  0  0  0  0  0
    0.6282   -2.0932   -2.9719 H   0  0  0  0  0  0  0  0  0  0  0  0
   -3.0321   -2.0487   -2.1312 H   0  0  0  0  0  0  0  0  0  0  0  0
   -4.3619    0.0421   -1.9643 H   0  0  0  0  0  0  0  0  0  0  0  0
   -0.7878    2.3803   -2.6169 H   0  0  0  0  0  0  0  0  0  0  0  0
    0.5643    0.2757   -2.7148 H   0  0  0  0  0  0  0  0  0  0  0  0
   -4.8006    1.8258   -0.8191 H   0  0  0  0  0  0  0  0  0  0  0  0
   -4.6986    3.5892   -1.2010 H   0  0  0  0  0  0  0  0  0  0  0  0
   -2.4619    3.6638    0.0583 H   0  0  0  0  0  0  0  0  0  0  0  0
   -3.8802    3.3662    1.0974 H   0  0  0  0  0  0  0  0  0  0  0  0
   -1.8655    1.2342    0.0953 H   0  0  0  0  0  0  0  0  0  0  0  0
   -1.9337    1.9224    1.7164 H   0  0  0  0  0  0  0  0  0  0  0  0
   -3.9203   -1.4011    1.6693 H   0  0  0  0  0  0  0  0  0  0  0  0
   -1.3222   -0.6159    0.3404 H   0  0  0  0  0  0  0  0  0  0  0  0
   -1.4715   -4.2633   -0.6251 H   0  0  0  0  0  0  0  0  0  0  0  0
   -1.6138   -2.0407    3.1235 H   0  0  0  0  0  0  0  0  0  0  0  0
   -0.1504   -2.1412    2.1270 H   0  0  0  0  0  0  0  0  0  0  0  0
   -2.0545    0.0511    4.2882 H   0  0  0  0  0  0  0  0  0  0  0  0
   -0.8714    1.2921    4.3186 H   0  0  0  0  0  0  0  0  0  0  0  0
    0.9186   -2.3061    0.9108 H   0  0  0  0  0  0  0  0  0  0  0  0
    0.9625   -0.0898    0.5027 H   0  0  0  0  0  0  0  0  0  0  0  0
    2.7202   -3.0825   -0.9625 H   0  0  0  0  0  0  0  0  0  0  0  0
    2.5444   -1.4234   -1.5847 H   0  0  0  0  0  0  0  0  0  0  0  0
    3.5651   -2.2512    1.1061 H   0  0  0  0  0  0  0  0  0  0  0  0
    2.8063    0.7352    1.9918 H   0  0  0  0  0  0  0  0  0  0  0  0
    1.7584    2.9645    2.1058 H   0  0  0  0  0  0  0  0  0  0  0  0
    2.1558    4.6422    0.2986 H   0  0  0  0  0  0  0  0  0  0  0  0
    3.5964    4.0545   -1.6450 H   0  0  0  0  0  0  0  0  0  0  0  0
    4.6426    1.8031   -1.7877 H   0  0  0  0  0  0  0  0  0  0  0  0
  1 37  1  6  0  0  0
  1 19  1  0  0  0  0
  1 24  1  0  0  0  0
  2  3  1  0  0  0  0
  2  1  1  0  0  0  0
  3  4  2  0  0  0  0
  4 40  1  0  0  0  0
  4  5  1  0  0  0  0
  5 41  1  0  0  0  0
  6  9  1  0  0  0  0
  6  5  2  0  0  0  0
  7  6  1  0  0  0  0
  8  7  2  0  0  0  0
  8  3  1  0  0  0  0
  9 10  1  0  0  0  0
 10 44  1  0  0  0  0
 10 11  1  0  0  0  0
 11 12  1  0  0  0  0
 11 47  1  0  0  0  0
 12 13  1  0  0  0  0
 12 49  1  0  0  0  0
 13 15  1  0  0  0  0
 13 14  2  0  0  0  0
 15 50  1  0  0  0  0
 16 51  1  6  0  0  0
 16 15  1  0  0  0  0
 16 20  1  0  0  0  0
 17 18  2  0  0  0  0
 17 16  1  0  0  0  0
 19 17  1  0  0  0  0
 20 21  1  0  0  0  0
 20 53  1  0  0  0  0
 21 23  1  0  0  0  0
 22 21  2  0  0  0  0
 23 55  1  0  0  0  0
 23 56  1  0  0  0  0
 24 57  1  1  0  0  0
 25 24  1  0  0  0  0
 25 58  1  0  0  0  0
 26 24  1  0  0  0  0
 26 27  1  0  0  0  0
 27 61  1  0  0  0  0
 28 31  1  0  0  0  0
 28 27  1  0  0  0  0
 28 30  2  0  0  0  0
 29 28  2  0  0  0  0
 31 32  2  0  0  0  0
 32 33  1  0  0  0  0
 32 62  1  0  0  0  0
 33 63  1  0  0  0  0
 34 64  1  0  0  0  0
 34 33  2  0  0  0  0
 35 34  1  0  0  0  0
 36 35  2  0  0  0  0
 36 31  1  0  0  0  0
 38  2  1  0  0  0  0
 39  2  1  0  0  0  0
 42  7  1  0  0  0  0
 43  8  1  0  0  0  0
 45 10  1  0  0  0  0
 46 11  1  0  0  0  0
 48 12  1  0  0  0  0
 52 19  1  0  0  0  0
 54 20  1  0  0  0  0
 59 26  1  0  0  0  0
 60 26  1  0  0  0  0
 65 35  1  0  0  0  0
 66 36  1  0  0  0  0
M  END
