omegapdb_1z1r_20.log
 OpenBabel10161801213D
Gaussian 16 # PM6 Opt
 66 68  0  0  1  0  0  0  0  0999 V2000
   -0.0688    0.6215   -1.5831 C   0  0  2  0  0  0  0  0  0  0  0  0
   -0.3994   -0.8621   -1.8792 C   0  0  0  0  0  0  0  0  0  0  0  0
    0.7333   -1.7549   -1.4594 C   0  0  0  0  0  0  0  0  0  0  0  0
    0.5693   -2.6365   -0.3788 C   0  0  0  0  0  0  0  0  0  0  0  0
    1.6741   -3.2786    0.1819 C   0  0  0  0  0  0  0  0  0  0  0  0
    2.9408   -3.0307   -0.3650 C   0  0  0  0  0  0  0  0  0  0  0  0
    3.1117   -2.2505   -1.5168 C   0  0  0  0  0  0  0  0  0  0  0  0
    1.9953   -1.6242   -2.0671 C   0  0  0  0  0  0  0  0  0  0  0  0
    4.0181   -3.6172    0.2986 O   0  0  0  0  0  0  0  0  0  0  0  0
    5.0718   -2.6918    0.6814 C   0  0  0  0  0  0  0  0  0  0  0  0
    4.5460   -1.7426    1.7645 C   0  0  0  0  0  0  0  0  0  0  0  0
    5.4057   -0.4935    1.9445 C   0  0  0  0  0  0  0  0  0  0  0  0
    5.5231    0.3492    0.6911 C   0  0  0  0  0  0  0  0  0  0  0  0
    6.5579    0.4298    0.0514 O   0  0  0  0  0  0  0  0  0  0  0  0
    4.4514    1.1615    0.2737 N   0  0  0  0  0  0  0  0  0  0  0  0
    3.0480    1.0210    0.7016 C   0  0  2  0  0  0  0  0  0  0  0  0
    2.1624    1.1005   -0.5750 C   0  0  0  0  0  0  0  0  0  0  0  0
    2.6175    1.4992   -1.6350 O   0  0  0  0  0  0  0  0  0  0  0  0
    0.8347    0.7458   -0.4062 N   0  0  0  0  0  0  0  0  0  0  0  0
    2.6518    2.1203    1.7058 C   0  0  0  0  0  0  0  0  0  0  0  0
    2.0672    3.3586    1.0443 C   0  0  0  0  0  0  0  0  0  0  0  0
    0.8640    3.5791    1.0120 O   0  0  0  0  0  0  0  0  0  0  0  0
    2.9691    4.2633    0.5066 N   0  0  0  0  0  0  0  0  0  0  0  0
   -1.3518    1.4689   -1.3535 C   0  0  2  0  0  0  0  0  0  0  0  0
   -1.0323    2.8530   -1.4552 O   0  0  0  0  0  0  0  0  0  0  0  0
   -2.0650    1.1980   -0.0058 C   0  0  0  0  0  0  0  0  0  0  0  0
   -3.5412    1.2387   -0.1048 N   0  0  0  0  0  0  0  0  0  0  0  0
   -4.3082   -0.1909   -0.6909 S   0  0  0  0  0  0  0  0  0  0  0  0
   -4.8399    0.1150   -2.0028 O   0  0  0  0  0  0  0  0  0  0  0  0
   -3.3210   -1.2539   -0.5471 O   0  0  0  0  0  0  0  0  0  0  0  0
   -5.6107   -0.4290    0.4135 C   0  0  0  0  0  0  0  0  0  0  0  0
   -6.9172   -0.1196    0.0185 C   0  0  0  0  0  0  0  0  0  0  0  0
   -7.9783   -0.3126    0.9071 C   0  0  0  0  0  0  0  0  0  0  0  0
   -7.7308   -0.8167    2.1891 C   0  0  0  0  0  0  0  0  0  0  0  0
   -6.4253   -1.1309    2.5824 C   0  0  0  0  0  0  0  0  0  0  0  0
   -5.3642   -0.9379    1.6926 C   0  0  0  0  0  0  0  0  0  0  0  0
    0.4684    1.0674   -2.4730 H   0  0  0  0  0  0  0  0  0  0  0  0
   -1.3502   -1.1727   -1.3773 H   0  0  0  0  0  0  0  0  0  0  0  0
   -0.6136   -0.9823   -2.9612 H   0  0  0  0  0  0  0  0  0  0  0  0
   -0.4253   -2.8046    0.0384 H   0  0  0  0  0  0  0  0  0  0  0  0
    1.5721   -3.9523    1.0292 H   0  0  0  0  0  0  0  0  0  0  0  0
    4.0955   -2.1326   -1.9664 H   0  0  0  0  0  0  0  0  0  0  0  0
    2.1116   -0.9918   -2.9496 H   0  0  0  0  0  0  0  0  0  0  0  0
    5.4546   -2.1636   -0.2090 H   0  0  0  0  0  0  0  0  0  0  0  0
    5.8430   -3.3893    1.0573 H   0  0  0  0  0  0  0  0  0  0  0  0
    3.4967   -1.4491    1.5228 H   0  0  0  0  0  0  0  0  0  0  0  0
    4.4747   -2.2875    2.7285 H   0  0  0  0  0  0  0  0  0  0  0  0
    5.0234    0.1182    2.7865 H   0  0  0  0  0  0  0  0  0  0  0  0
    6.4395   -0.7876    2.2443 H   0  0  0  0  0  0  0  0  0  0  0  0
    4.5814    1.6510   -0.6313 H   0  0  0  0  0  0  0  0  0  0  0  0
    2.8966    0.0112    1.1893 H   0  0  0  0  0  0  0  0  0  0  0  0
    0.5013    0.3441    0.4647 H   0  0  0  0  0  0  0  0  0  0  0  0
    1.8912    1.7260    2.4144 H   0  0  0  0  0  0  0  0  0  0  0  0
    3.5244    2.3897    2.3386 H   0  0  0  0  0  0  0  0  0  0  0  0
    3.9433    4.0400    0.3771 H   0  0  0  0  0  0  0  0  0  0  0  0
    2.6239    5.0542   -0.0220 H   0  0  0  0  0  0  0  0  0  0  0  0
   -2.0380    1.3255   -2.2264 H   0  0  0  0  0  0  0  0  0  0  0  0
   -0.4115    3.1361   -0.7301 H   0  0  0  0  0  0  0  0  0  0  0  0
   -1.7571    0.2158    0.4229 H   0  0  0  0  0  0  0  0  0  0  0  0
   -1.7502    1.9790    0.7315 H   0  0  0  0  0  0  0  0  0  0  0  0
   -3.8628    2.1426   -0.4834 H   0  0  0  0  0  0  0  0  0  0  0  0
   -7.1109    0.2664   -0.9899 H   0  0  0  0  0  0  0  0  0  0  0  0
   -8.9959   -0.0729    0.6007 H   0  0  0  0  0  0  0  0  0  0  0  0
   -8.5590   -0.9670    2.8834 H   0  0  0  0  0  0  0  0  0  0  0  0
   -6.2354   -1.5271    3.5790 H   0  0  0  0  0  0  0  0  0  0  0  0
   -4.3454   -1.1927    1.9990 H   0  0  0  0  0  0  0  0  0  0  0  0
  1 37  1  6  0  0  0
  1 24  1  0  0  0  0
  1 19  1  0  0  0  0
  2  1  1  0  0  0  0
  2  3  1  0  0  0  0
  2 38  1  0  0  0  0
  3  4  2  0  0  0  0
  4 40  1  0  0  0  0
  4  5  1  0  0  0  0
  5 41  1  0  0  0  0
  6  5  2  0  0  0  0
  6  9  1  0  0  0  0
  7  6  1  0  0  0  0
  8  7  2  0  0  0  0
  8  3  1  0  0  0  0
  9 10  1  0  0  0  0
 10 45  1  0  0  0  0
 10 11  1  0  0  0  0
 11 12  1  0  0  0  0
 11 47  1  0  0  0  0
 12 49  1  0  0  0  0
 12 48  1  0  0  0  0
 13 12  1  0  0  0  0
 14 13  2  0  0  0  0
 15 13  1  0  0  0  0
 15 16  1  0  0  0  0
 16 51  1  1  0  0  0
 16 20  1  0  0  0  0
 17 19  1  0  0  0  0
 17 16  1  0  0  0  0
 18 17  2  0  0  0  0
 19 52  1  0  0  0  0
 20 54  1  0  0  0  0
 20 53  1  0  0  0  0
 21 20  1  0  0  0  0
 22 21  2  0  0  0  0
 23 21  1  0  0  0  0
 24 57  1  6  0  0  0
 24 26  1  0  0  0  0
 25 24  1  0  0  0  0
 25 58  1  0  0  0  0
 26 59  1  0  0  0  0
 26 60  1  0  0  0  0
 27 26  1  0  0  0  0
 28 30  2  0  0  0  0
 28 27  1  0  0  0  0
 28 31  1  0  0  0  0
 29 28  2  0  0  0  0
 31 36  1  0  0  0  0
 32 31  2  0  0  0  0
 32 33  1  0  0  0  0
 33 34  2  0  0  0  0
 34 35  1  0  0  0  0
 34 64  1  0  0  0  0
 35 65  1  0  0  0  0
 36 66  1  0  0  0  0
 36 35  2  0  0  0  0
 39  2  1  0  0  0  0
 42  7  1  0  0  0  0
 43  8  1  0  0  0  0
 44 10  1  0  0  0  0
 46 11  1  0  0  0  0
 50 15  1  0  0  0  0
 55 23  1  0  0  0  0
 56 23  1  0  0  0  0
 61 27  1  0  0  0  0
 62 32  1  0  0  0  0
 63 33  1  0  0  0  0
M  END
