omegapdb_2f7p_21.log
 OpenBabel10161801213D
Gaussian 16 # PM6 Opt
 34 35  0  0  1  0  0  0  0  0999 V2000
   -1.3846    1.0240   -0.6225 C   0  0  1  0  0  0  0  0  0  0  0  0
   -0.2509    1.8532   -0.1481 N   0  0  0  0  0  0  0  0  0  0  0  0
    0.5729    1.3676    0.9934 C   0  0  0  0  0  0  0  0  0  0  0  0
    1.8884    0.7331    0.6098 C   0  0  0  0  0  0  0  0  0  0  0  0
    2.9073    1.5156    0.0442 C   0  0  0  0  0  0  0  0  0  0  0  0
    4.1284    0.9332   -0.3040 C   0  0  0  0  0  0  0  0  0  0  0  0
    4.3444   -0.4321   -0.0867 C   0  0  0  0  0  0  0  0  0  0  0  0
    3.3338   -1.2147    0.4795 C   0  0  0  0  0  0  0  0  0  0  0  0
    2.1097   -0.6350    0.8244 C   0  0  0  0  0  0  0  0  0  0  0  0
   -1.0534   -0.2070   -1.5334 C   0  0  1  0  0  0  0  0  0  0  0  0
    0.2846   -0.2622   -2.0032 O   0  0  0  0  0  0  0  0  0  0  0  0
   -1.3771   -1.4970   -0.7274 C   0  0  1  0  0  0  0  0  0  0  0  0
   -0.1857   -2.2404   -0.4522 O   0  0  0  0  0  0  0  0  0  0  0  0
   -1.9484   -1.0579    0.6470 C   0  0  1  0  0  0  0  0  0  0  0  0
   -1.0133   -1.2325    1.7120 O   0  0  0  0  0  0  0  0  0  0  0  0
   -2.2328    0.4533    0.5317 C   0  0  2  0  0  0  0  0  0  0  0  0
   -3.9801    0.6862    0.0733 S   0  0  0  0  0  0  0  0  0  0  0  0
   -1.9903    1.7516   -1.2406 H   0  0  0  0  0  0  0  0  0  0  0  0
    0.3489    2.1009   -0.9462 H   0  0  0  0  0  0  0  0  0  0  0  0
    0.7727    2.2745    1.6198 H   0  0  0  0  0  0  0  0  0  0  0  0
   -0.0169    0.6857    1.6565 H   0  0  0  0  0  0  0  0  0  0  0  0
    2.7494    2.5819   -0.1155 H   0  0  0  0  0  0  0  0  0  0  0  0
    4.9162    1.5452   -0.7423 H   0  0  0  0  0  0  0  0  0  0  0  0
    5.2985   -0.8827   -0.3552 H   0  0  0  0  0  0  0  0  0  0  0  0
    3.5003   -2.2768    0.6564 H   0  0  0  0  0  0  0  0  0  0  0  0
    1.3188   -1.2559    1.2634 H   0  0  0  0  0  0  0  0  0  0  0  0
   -1.6345   -0.1645   -2.4826 H   0  0  0  0  0  0  0  0  0  0  0  0
    0.9380   -0.1590   -1.2652 H   0  0  0  0  0  0  0  0  0  0  0  0
   -2.0692   -2.1722   -1.2714 H   0  0  0  0  0  0  0  0  0  0  0  0
    0.4561   -2.1356   -1.2092 H   0  0  0  0  0  0  0  0  0  0  0  0
   -2.8337   -1.6588    0.9491 H   0  0  0  0  0  0  0  0  0  0  0  0
   -0.1680   -1.6662    1.3779 H   0  0  0  0  0  0  0  0  0  0  0  0
   -2.0097    0.9666    1.4980 H   0  0  0  0  0  0  0  0  0  0  0  0
   -4.5546    0.4973    1.2816 H   0  0  0  0  0  0  0  0  0  0  0  0
  1 18  1  6  0  0  0
  1  2  1  0  0  0  0
  1 16  1  0  0  0  0
  2  3  1  0  0  0  0
  3 20  1  0  0  0  0
  3 21  1  0  0  0  0
  4  9  1  0  0  0  0
  4  3  1  0  0  0  0
  5  4  2  0  0  0  0
  6  7  2  0  0  0  0
  6  5  1  0  0  0  0
  7  8  1  0  0  0  0
  8 25  1  0  0  0  0
  8  9  2  0  0  0  0
  9 26  1  0  0  0  0
 10 27  1  6  0  0  0
 10 12  1  0  0  0  0
 10  1  1  0  0  0  0
 11 10  1  0  0  0  0
 11 28  1  0  0  0  0
 12 29  1  6  0  0  0
 12 13  1  0  0  0  0
 12 14  1  0  0  0  0
 14 31  1  1  0  0  0
 14 15  1  0  0  0  0
 16 14  1  0  0  0  0
 16 33  1  1  0  0  0
 17 16  1  0  0  0  0
 17 34  1  0  0  0  0
 19  2  1  0  0  0  0
 22  5  1  0  0  0  0
 23  6  1  0  0  0  0
 24  7  1  0  0  0  0
 30 13  1  0  0  0  0
 32 15  1  0  0  0  0
M  END
