omegapdb_1z1r_16.log
 OpenBabel10161801213D
Gaussian 16 # PM6 Opt
 66 68  0  0  1  0  0  0  0  0999 V2000
    0.2518    0.1329    0.4849 C   0  0  2  0  0  0  0  0  0  0  0  0
    0.3074   -1.0766   -0.4789 C   0  0  0  0  0  0  0  0  0  0  0  0
   -1.0282   -1.7580   -0.5643 C   0  0  0  0  0  0  0  0  0  0  0  0
   -1.4391   -2.6483    0.4431 C   0  0  0  0  0  0  0  0  0  0  0  0
   -2.7242   -3.1855    0.4315 C   0  0  0  0  0  0  0  0  0  0  0  0
   -3.5971   -2.8224   -0.6080 C   0  0  0  0  0  0  0  0  0  0  0  0
   -3.1917   -1.9821   -1.6531 C   0  0  0  0  0  0  0  0  0  0  0  0
   -1.8993   -1.4560   -1.6229 C   0  0  0  0  0  0  0  0  0  0  0  0
   -4.8547   -3.4030   -0.5464 O   0  0  0  0  0  0  0  0  0  0  0  0
   -5.9937   -2.5374   -0.8123 C   0  0  0  0  0  0  0  0  0  0  0  0
   -6.1977   -1.5681    0.3499 C   0  0  0  0  0  0  0  0  0  0  0  0
   -5.5924   -0.1819    0.1023 C   0  0  0  0  0  0  0  0  0  0  0  0
   -5.3955    0.5404    1.4176 C   0  0  0  0  0  0  0  0  0  0  0  0
   -6.1255    0.4164    2.3850 O   0  0  0  0  0  0  0  0  0  0  0  0
   -4.3389    1.4690    1.5316 N   0  0  0  0  0  0  0  0  0  0  0  0
   -3.2827    1.6835    0.5330 C   0  0  2  0  0  0  0  0  0  0  0  0
   -1.9314    1.1706    1.1027 C   0  0  0  0  0  0  0  0  0  0  0  0
   -1.7591    0.9717    2.2942 O   0  0  0  0  0  0  0  0  0  0  0  0
   -0.9292    0.9759    0.1635 N   0  0  0  0  0  0  0  0  0  0  0  0
   -3.1866    3.1851    0.1912 C   0  0  0  0  0  0  0  0  0  0  0  0
   -2.6362    3.3863   -1.2039 C   0  0  0  0  0  0  0  0  0  0  0  0
   -2.3217    2.4695   -1.9515 O   0  0  0  0  0  0  0  0  0  0  0  0
   -2.5057    4.7009   -1.6327 N   0  0  0  0  0  0  0  0  0  0  0  0
    1.5288    1.0144    0.3887 C   0  0  2  0  0  0  0  0  0  0  0  0
    1.8629    1.0758   -0.9965 O   0  0  0  0  0  0  0  0  0  0  0  0
    2.7212    0.4198    1.1878 C   0  0  0  0  0  0  0  0  0  0  0  0
    3.4683   -0.6304    0.4612 N   0  0  0  0  0  0  0  0  0  0  0  0
    4.5656   -0.0804   -0.7569 S   0  0  0  0  0  0  0  0  0  0  0  0
    4.4345   -1.0101   -1.8554 O   0  0  0  0  0  0  0  0  0  0  0  0
    4.3465    1.3554   -0.9562 O   0  0  0  0  0  0  0  0  0  0  0  0
    6.1102   -0.2751   -0.0078 C   0  0  0  0  0  0  0  0  0  0  0  0
    6.7557    0.8301    0.5568 C   0  0  0  0  0  0  0  0  0  0  0  0
    8.0045    0.6733    1.1643 C   0  0  0  0  0  0  0  0  0  0  0  0
    8.6068   -0.5895    1.2031 C   0  0  0  0  0  0  0  0  0  0  0  0
    7.9649   -1.6935    0.6318 C   0  0  0  0  0  0  0  0  0  0  0  0
    6.7156   -1.5353    0.0240 C   0  0  0  0  0  0  0  0  0  0  0  0
    0.1441   -0.2330    1.5456 H   0  0  0  0  0  0  0  0  0  0  0  0
    0.6467   -0.7326   -1.4855 H   0  0  0  0  0  0  0  0  0  0  0  0
    1.0945   -1.7823   -0.1433 H   0  0  0  0  0  0  0  0  0  0  0  0
   -0.7575   -2.9059    1.2531 H   0  0  0  0  0  0  0  0  0  0  0  0
   -3.0663   -3.8647    1.2096 H   0  0  0  0  0  0  0  0  0  0  0  0
   -3.8620   -1.7563   -2.4774 H   0  0  0  0  0  0  0  0  0  0  0  0
   -1.5712   -0.7964   -2.4285 H   0  0  0  0  0  0  0  0  0  0  0  0
   -6.8025   -3.2925   -0.8711 H   0  0  0  0  0  0  0  0  0  0  0  0
   -5.8749   -2.0447   -1.7895 H   0  0  0  0  0  0  0  0  0  0  0  0
   -7.2768   -1.4652    0.5862 H   0  0  0  0  0  0  0  0  0  0  0  0
   -5.7545   -2.0186    1.2691 H   0  0  0  0  0  0  0  0  0  0  0  0
   -6.2622    0.4227   -0.5443 H   0  0  0  0  0  0  0  0  0  0  0  0
   -4.6338   -0.2727   -0.4567 H   0  0  0  0  0  0  0  0  0  0  0  0
   -4.1185    1.7969    2.4817 H   0  0  0  0  0  0  0  0  0  0  0  0
   -3.5183    1.1015   -0.4100 H   0  0  0  0  0  0  0  0  0  0  0  0
   -1.0802    1.1788   -0.8356 H   0  0  0  0  0  0  0  0  0  0  0  0
   -4.1988    3.6447    0.2717 H   0  0  0  0  0  0  0  0  0  0  0  0
   -2.5705    3.7177    0.9458 H   0  0  0  0  0  0  0  0  0  0  0  0
   -2.1327    4.8908   -2.5529 H   0  0  0  0  0  0  0  0  0  0  0  0
   -2.7304    5.4984   -1.0670 H   0  0  0  0  0  0  0  0  0  0  0  0
    1.3111    2.0435    0.7578 H   0  0  0  0  0  0  0  0  0  0  0  0
    2.5711    1.7743   -1.1675 H   0  0  0  0  0  0  0  0  0  0  0  0
    3.4179    1.2412    1.4726 H   0  0  0  0  0  0  0  0  0  0  0  0
    2.3612   -0.0133    2.1506 H   0  0  0  0  0  0  0  0  0  0  0  0
    2.8266   -1.3877    0.1597 H   0  0  0  0  0  0  0  0  0  0  0  0
    6.2892    1.8208    0.5133 H   0  0  0  0  0  0  0  0  0  0  0  0
    8.5089    1.5328    1.6035 H   0  0  0  0  0  0  0  0  0  0  0  0
    9.5814   -0.7127    1.6778 H   0  0  0  0  0  0  0  0  0  0  0  0
    8.4375   -2.6746    0.6574 H   0  0  0  0  0  0  0  0  0  0  0  0
    6.2208   -2.3983   -0.4337 H   0  0  0  0  0  0  0  0  0  0  0  0
  1 37  1  1  0  0  0
  2 39  1  0  0  0  0
  2  1  1  0  0  0  0
  3  2  1  0  0  0  0
  3  4  2  0  0  0  0
  4 40  1  0  0  0  0
  5  4  1  0  0  0  0
  5 41  1  0  0  0  0
  6  9  1  0  0  0  0
  6  5  2  0  0  0  0
  7  8  2  0  0  0  0
  7  6  1  0  0  0  0
  8  3  1  0  0  0  0
 10  9  1  0  0  0  0
 10 11  1  0  0  0  0
 11 46  1  0  0  0  0
 11 47  1  0  0  0  0
 12 11  1  0  0  0  0
 12 13  1  0  0  0  0
 13 15  1  0  0  0  0
 13 14  2  0  0  0  0
 15 50  1  0  0  0  0
 16 51  1  6  0  0  0
 16 17  1  0  0  0  0
 16 15  1  0  0  0  0
 17 18  2  0  0  0  0
 19  1  1  0  0  0  0
 19 17  1  0  0  0  0
 20 53  1  0  0  0  0
 20 16  1  0  0  0  0
 20 54  1  0  0  0  0
 21 20  1  0  0  0  0
 22 21  2  0  0  0  0
 23 21  1  0  0  0  0
 23 56  1  0  0  0  0
 24  1  1  0  0  0  0
 24 57  1  1  0  0  0
 24 26  1  0  0  0  0
 25 24  1  0  0  0  0
 26 59  1  0  0  0  0
 26 60  1  0  0  0  0
 27 26  1  0  0  0  0
 28 31  1  0  0  0  0
 28 27  1  0  0  0  0
 29 28  2  0  0  0  0
 30 28  2  0  0  0  0
 31 36  2  0  0  0  0
 31 32  1  0  0  0  0
 32 33  2  0  0  0  0
 33 34  1  0  0  0  0
 33 63  1  0  0  0  0
 34 64  1  0  0  0  0
 35 65  1  0  0  0  0
 35 34  2  0  0  0  0
 36 35  1  0  0  0  0
 38  2  1  0  0  0  0
 42  7  1  0  0  0  0
 43  8  1  0  0  0  0
 44 10  1  0  0  0  0
 45 10  1  0  0  0  0
 48 12  1  0  0  0  0
 49 12  1  0  0  0  0
 52 19  1  0  0  0  0
 55 23  1  0  0  0  0
 58 25  1  0  0  0  0
 61 27  1  0  0  0  0
 62 32  1  0  0  0  0
 66 36  1  0  0  0  0
M  END
