omegapdb_1gs5_16.log
 OpenBabel10161801213D
Gaussian 16 # PM6 Opt
 24 23  0  0  1  0  0  0  0  0999 V2000
   -0.2340   -0.5444   -0.3314 C   0  0  2  0  0  0  0  0  0  0  0  0
   -1.1747   -1.7457   -0.1598 C   0  0  0  0  0  0  0  0  0  0  0  0
   -2.2794   -1.9182   -0.6121 O   0  0  0  0  0  0  0  0  0  0  0  0
   -0.5684   -2.7325    0.5783 O   0  0  0  0  0  0  0  0  0  0  0  0
    0.6008   -0.3117    0.9416 C   0  0  0  0  0  0  0  0  0  0  0  0
    1.6853    0.7492    0.7467 C   0  0  0  0  0  0  0  0  0  0  0  0
    2.7193    0.3292   -0.2650 C   0  0  0  0  0  0  0  0  0  0  0  0
    2.5419   -0.2221   -1.3225 O   0  0  0  0  0  0  0  0  0  0  0  0
    4.0295    0.6373    0.0433 O   0  0  0  0  0  0  0  0  0  0  0  0
   -1.0241    0.6302   -0.7442 N   0  0  0  0  0  0  0  0  0  0  0  0
   -1.8528    1.3541    0.1390 C   0  0  0  0  0  0  0  0  0  0  0  0
   -1.8107    1.1788    1.3423 O   0  0  0  0  0  0  0  0  0  0  0  0
   -2.7246    2.3752   -0.5325 C   0  0  0  0  0  0  0  0  0  0  0  0
    0.4748   -0.8039   -1.1846 H   0  0  0  0  0  0  0  0  0  0  0  0
   -1.1450   -3.5377    0.6897 H   0  0  0  0  0  0  0  0  0  0  0  0
    1.0520   -1.2784    1.2573 H   0  0  0  0  0  0  0  0  0  0  0  0
   -0.0698   -0.0003    1.7804 H   0  0  0  0  0  0  0  0  0  0  0  0
    2.1391    0.9892    1.7294 H   0  0  0  0  0  0  0  0  0  0  0  0
    1.2169    1.7016    0.4002 H   0  0  0  0  0  0  0  0  0  0  0  0
    4.1728    1.0723    0.9116 H   0  0  0  0  0  0  0  0  0  0  0  0
   -1.1714    0.7092   -1.7503 H   0  0  0  0  0  0  0  0  0  0  0  0
   -3.2042    3.0167    0.2265 H   0  0  0  0  0  0  0  0  0  0  0  0
   -3.5386    1.9014   -1.1017 H   0  0  0  0  0  0  0  0  0  0  0  0
   -2.1761    3.0363   -1.2149 H   0  0  0  0  0  0  0  0  0  0  0  0
  1 14  1  6  0  0  0
  1  2  1  0  0  0  0
  1  5  1  0  0  0  0
  2  4  1  0  0  0  0
  3  2  2  0  0  0  0
  4 15  1  0  0  0  0
  5 16  1  0  0  0  0
  5 17  1  0  0  0  0
  6  5  1  0  0  0  0
  6 18  1  0  0  0  0
  7  9  1  0  0  0  0
  7  6  1  0  0  0  0
  8  7  2  0  0  0  0
  9 20  1  0  0  0  0
 10  1  1  0  0  0  0
 10 11  1  0  0  0  0
 11 12  2  0  0  0  0
 13 11  1  0  0  0  0
 13 22  1  0  0  0  0
 19  6  1  0  0  0  0
 21 10  1  0  0  0  0
 23 13  1  0  0  0  0
 24 13  1  0  0  0  0
M  END
