omegapdb_2byh_05.log
 OpenBabel10161801213D
Gaussian 16 # PM6 Opt
 40 42  0  0  0  0  0  0  0  0999 V2000
   -6.6414   -2.2443   -0.2376 O   0  0  0  0  0  0  0  0  0  0  0  0
   -6.4936   -1.1526    0.2751 C   0  0  0  0  0  0  0  0  0  0  0  0
   -7.6339   -0.4803    0.9896 C   0  0  0  0  0  0  0  0  0  0  0  0
   -5.1861   -0.4418    0.2150 C   0  0  0  0  0  0  0  0  0  0  0  0
   -4.9646    0.8060    0.8164 C   0  0  0  0  0  0  0  0  0  0  0  0
   -3.7219    1.4270    0.7307 C   0  0  0  0  0  0  0  0  0  0  0  0
   -2.6705    0.7921    0.0286 C   0  0  0  0  0  0  0  0  0  0  0  0
   -2.8812   -0.4597   -0.5774 C   0  0  0  0  0  0  0  0  0  0  0  0
   -4.1309   -1.0631   -0.4794 C   0  0  0  0  0  0  0  0  0  0  0  0
   -1.4226    1.4781   -0.0320 N   0  0  0  0  0  0  0  0  0  0  0  0
   -0.2370    1.0136   -0.6587 C   0  0  0  0  0  0  0  0  0  0  0  0
   -0.1757   -0.0859   -1.1796 O   0  0  0  0  0  0  0  0  0  0  0  0
    0.8647    1.9788   -0.6026 C   0  0  0  0  0  0  0  0  0  0  0  0
    0.7644    3.3909   -0.8577 C   0  0  0  0  0  0  0  0  0  0  0  0
    1.9789    3.9760   -0.7235 N   0  0  0  0  0  0  0  0  0  0  0  0
    2.8534    2.9788   -0.4028 N   0  0  0  0  0  0  0  0  0  0  0  0
    2.2250    1.7314   -0.3204 C   0  0  0  0  0  0  0  0  0  0  0  0
    2.9537    0.5165    0.0004 C   0  0  0  0  0  0  0  0  0  0  0  0
    2.5760   -0.7173   -0.5640 C   0  0  0  0  0  0  0  0  0  0  0  0
    3.2586   -1.8841   -0.2352 C   0  0  0  0  0  0  0  0  0  0  0  0
    2.7960   -3.3788   -0.9254 Cl  0  0  0  0  0  0  0  0  0  0  0  0
    4.3402   -1.8523    0.6743 C   0  0  0  0  0  0  0  0  0  0  0  0
    5.0413   -2.9495    1.0494 O   0  0  0  0  0  0  0  0  0  0  0  0
    4.7560   -0.6394    1.2417 C   0  0  0  0  0  0  0  0  0  0  0  0
    4.0623    0.5198    0.8852 C   0  0  0  0  0  0  0  0  0  0  0  0
    4.4423    1.7453    1.3680 O   0  0  0  0  0  0  0  0  0  0  0  0
   -7.8901    0.4844    0.5350 H   0  0  0  0  0  0  0  0  0  0  0  0
   -7.4090   -0.3094    2.0493 H   0  0  0  0  0  0  0  0  0  0  0  0
   -8.5381   -1.1080    0.9483 H   0  0  0  0  0  0  0  0  0  0  0  0
   -5.7672    1.3058    1.3608 H   0  0  0  0  0  0  0  0  0  0  0  0
   -3.5696    2.3931    1.2044 H   0  0  0  0  0  0  0  0  0  0  0  0
   -2.0698   -0.9583   -1.1203 H   0  0  0  0  0  0  0  0  0  0  0  0
   -4.3077   -2.0394   -0.9469 H   0  0  0  0  0  0  0  0  0  0  0  0
   -1.3849    2.3808    0.4515 H   0  0  0  0  0  0  0  0  0  0  0  0
   -0.1206    3.9405   -1.1397 H   0  0  0  0  0  0  0  0  0  0  0  0
    3.8255    3.1888   -0.1954 H   0  0  0  0  0  0  0  0  0  0  0  0
    1.7255   -0.7600   -1.2712 H   0  0  0  0  0  0  0  0  0  0  0  0
    4.7133   -3.7965    0.6286 H   0  0  0  0  0  0  0  0  0  0  0  0
    5.5951   -0.6307    1.9324 H   0  0  0  0  0  0  0  0  0  0  0  0
    5.1781    1.6808    2.0334 H   0  0  0  0  0  0  0  0  0  0  0  0
  1  2  2  0  0  0  0
  2  3  1  0  0  0  0
  3 28  1  0  0  0  0
  4  2  1  0  0  0  0
  4  5  2  0  0  0  0
  5 30  1  0  0  0  0
  6  5  1  0  0  0  0
  6 31  1  0  0  0  0
  7  6  2  0  0  0  0
  8  9  2  0  0  0  0
  8  7  1  0  0  0  0
  9  4  1  0  0  0  0
 10  7  1  0  0  0  0
 10 34  1  0  0  0  0
 11 13  1  0  0  0  0
 11 10  1  0  0  0  0
 12 11  2  0  0  0  0
 13 17  2  0  0  0  0
 14 15  2  0  0  0  0
 14 13  1  0  0  0  0
 15 16  1  0  0  0  0
 16 17  1  0  0  0  0
 16 36  1  0  0  0  0
 17 18  1  0  0  0  0
 18 25  2  0  0  0  0
 19 20  2  0  0  0  0
 19 18  1  0  0  0  0
 20 22  1  0  0  0  0
 21 20  1  0  0  0  0
 22 23  1  0  0  0  0
 22 24  2  0  0  0  0
 24 39  1  0  0  0  0
 25 24  1  0  0  0  0
 25 26  1  0  0  0  0
 26 40  1  0  0  0  0
 27  3  1  0  0  0  0
 29  3  1  0  0  0  0
 32  8  1  0  0  0  0
 33  9  1  0  0  0  0
 35 14  1  0  0  0  0
 37 19  1  0  0  0  0
 38 23  1  0  0  0  0
M  END
