omegapdb_2f7p_12.log
 OpenBabel10161801213D
Gaussian 16 # PM6 Opt
 34 35  0  0  1  0  0  0  0  0999 V2000
   -0.9494    0.2882   -0.6301 C   0  0  1  0  0  0  0  0  0  0  0  0
    0.4283    0.4047   -0.1059 N   0  0  0  0  0  0  0  0  0  0  0  0
    1.4720    0.1100   -1.1409 C   0  0  0  0  0  0  0  0  0  0  0  0
    2.8240    0.0227   -0.4741 C   0  0  0  0  0  0  0  0  0  0  0  0
    3.5781   -1.1560   -0.5610 C   0  0  0  0  0  0  0  0  0  0  0  0
    4.8379   -1.2245    0.0414 C   0  0  0  0  0  0  0  0  0  0  0  0
    5.3466   -0.1226    0.7357 C   0  0  0  0  0  0  0  0  0  0  0  0
    4.5917    1.0515    0.8288 C   0  0  0  0  0  0  0  0  0  0  0  0
    3.3339    1.1267    0.2257 C   0  0  0  0  0  0  0  0  0  0  0  0
   -1.5069   -1.1661   -0.7570 C   0  0  1  0  0  0  0  0  0  0  0  0
   -1.0409   -2.0138    0.2954 O   0  0  0  0  0  0  0  0  0  0  0  0
   -3.0412   -1.0100   -0.5941 C   0  0  1  0  0  0  0  0  0  0  0  0
   -3.6385   -2.1741   -0.0352 O   0  0  0  0  0  0  0  0  0  0  0  0
   -3.2008    0.1547    0.4325 C   0  0  1  0  0  0  0  0  0  0  0  0
   -3.1634   -0.4143    1.7540 O   0  0  0  0  0  0  0  0  0  0  0  0
   -1.9229    1.0019    0.3415 C   0  0  2  0  0  0  0  0  0  0  0  0
   -2.3618    2.6418   -0.3002 S   0  0  0  0  0  0  0  0  0  0  0  0
   -0.9951    0.7600   -1.6479 H   0  0  0  0  0  0  0  0  0  0  0  0
    0.5595   -0.2242    0.7001 H   0  0  0  0  0  0  0  0  0  0  0  0
    1.4724    0.9500   -1.8754 H   0  0  0  0  0  0  0  0  0  0  0  0
    1.2582   -0.8162   -1.7196 H   0  0  0  0  0  0  0  0  0  0  0  0
    3.1872   -2.0208   -1.0937 H   0  0  0  0  0  0  0  0  0  0  0  0
    5.4225   -2.1403   -0.0293 H   0  0  0  0  0  0  0  0  0  0  0  0
    6.3272   -0.1786    1.2042 H   0  0  0  0  0  0  0  0  0  0  0  0
    4.9846    1.9091    1.3727 H   0  0  0  0  0  0  0  0  0  0  0  0
    2.7393    2.0369    0.3036 H   0  0  0  0  0  0  0  0  0  0  0  0
   -1.1899   -1.6954   -1.6739 H   0  0  0  0  0  0  0  0  0  0  0  0
   -1.2768   -1.6134    1.1811 H   0  0  0  0  0  0  0  0  0  0  0  0
   -3.5801   -0.8256   -1.5437 H   0  0  0  0  0  0  0  0  0  0  0  0
   -2.9300   -2.7868    0.3168 H   0  0  0  0  0  0  0  0  0  0  0  0
   -4.1520    0.7110    0.3179 H   0  0  0  0  0  0  0  0  0  0  0  0
   -3.8575   -1.1232    1.8186 H   0  0  0  0  0  0  0  0  0  0  0  0
   -1.4799    1.1080    1.3659 H   0  0  0  0  0  0  0  0  0  0  0  0
   -1.1339    3.2082   -0.2573 H   0  0  0  0  0  0  0  0  0  0  0  0
  1 18  1  6  0  0  0
  1  2  1  0  0  0  0
  1 16  1  0  0  0  0
  2 19  1  0  0  0  0
  3  4  1  0  0  0  0
  3  2  1  0  0  0  0
  4  9  1  0  0  0  0
  5  4  2  0  0  0  0
  5  6  1  0  0  0  0
  6  7  2  0  0  0  0
  7  8  1  0  0  0  0
  7 24  1  0  0  0  0
  8 25  1  0  0  0  0
  9 26  1  0  0  0  0
  9  8  2  0  0  0  0
 10 27  1  6  0  0  0
 10  1  1  0  0  0  0
 10 12  1  0  0  0  0
 10 11  1  0  0  0  0
 11 28  1  0  0  0  0
 12 29  1  6  0  0  0
 12 13  1  0  0  0  0
 12 14  1  0  0  0  0
 13 30  1  0  0  0  0
 14 31  1  6  0  0  0
 14 15  1  0  0  0  0
 15 32  1  0  0  0  0
 16 14  1  0  0  0  0
 16 33  1  1  0  0  0
 17 34  1  0  0  0  0
 17 16  1  0  0  0  0
 20  3  1  0  0  0  0
 21  3  1  0  0  0  0
 22  5  1  0  0  0  0
 23  6  1  0  0  0  0
M  END
