omegapdb_2byh_07.log
 OpenBabel10161801213D
Gaussian 16 # PM6 Opt
 40 42  0  0  0  0  0  0  0  0999 V2000
   -6.7399    0.1568    0.5307 O   0  0  0  0  0  0  0  0  0  0  0  0
   -5.8920    0.8354   -0.0137 C   0  0  0  0  0  0  0  0  0  0  0  0
   -6.2363    2.1852   -0.5810 C   0  0  0  0  0  0  0  0  0  0  0  0
   -4.4868    0.3574   -0.1438 C   0  0  0  0  0  0  0  0  0  0  0  0
   -3.4584    1.1433   -0.6847 C   0  0  0  0  0  0  0  0  0  0  0  0
   -2.1607    0.6490   -0.7812 C   0  0  0  0  0  0  0  0  0  0  0  0
   -1.8779   -0.6616   -0.3305 C   0  0  0  0  0  0  0  0  0  0  0  0
   -2.9012   -1.4590    0.2124 C   0  0  0  0  0  0  0  0  0  0  0  0
   -4.1909   -0.9443    0.3025 C   0  0  0  0  0  0  0  0  0  0  0  0
   -0.5298   -1.1117   -0.4494 N   0  0  0  0  0  0  0  0  0  0  0  0
   -0.0404   -2.3903   -0.0838 C   0  0  0  0  0  0  0  0  0  0  0  0
   -0.7584   -3.2593    0.3700 O   0  0  0  0  0  0  0  0  0  0  0  0
    1.4029   -2.5646   -0.3028 C   0  0  0  0  0  0  0  0  0  0  0  0
    1.9981   -3.8162   -0.6885 C   0  0  0  0  0  0  0  0  0  0  0  0
    3.3388   -3.6684   -0.8250 N   0  0  0  0  0  0  0  0  0  0  0  0
    3.6187   -2.3654   -0.5235 N   0  0  0  0  0  0  0  0  0  0  0  0
    2.4656   -1.6472   -0.2031 C   0  0  0  0  0  0  0  0  0  0  0  0
    2.4934   -0.2499    0.1871 C   0  0  0  0  0  0  0  0  0  0  0  0
    2.9149    0.7372   -0.7278 C   0  0  0  0  0  0  0  0  0  0  0  0
    2.9441    2.0720   -0.3584 C   0  0  0  0  0  0  0  0  0  0  0  0
    3.4469    3.2763   -1.4559 Cl  0  0  0  0  0  0  0  0  0  0  0  0
    2.5513    2.4533    0.9537 C   0  0  0  0  0  0  0  0  0  0  0  0
    2.6167    3.7825    1.2167 O   0  0  0  0  0  0  0  0  0  0  0  0
    2.1292    1.5041    1.8827 C   0  0  0  0  0  0  0  0  0  0  0  0
    2.1028    0.1542    1.4871 C   0  0  0  0  0  0  0  0  0  0  0  0
    1.6864   -0.7041    2.4500 O   0  0  0  0  0  0  0  0  0  0  0  0
   -6.0239    2.2449   -1.6554 H   0  0  0  0  0  0  0  0  0  0  0  0
   -7.3098    2.3955   -0.4507 H   0  0  0  0  0  0  0  0  0  0  0  0
   -5.6882    2.9917   -0.0793 H   0  0  0  0  0  0  0  0  0  0  0  0
   -3.6646    2.1555   -1.0359 H   0  0  0  0  0  0  0  0  0  0  0  0
   -1.3772    1.2731   -1.2029 H   0  0  0  0  0  0  0  0  0  0  0  0
   -2.6895   -2.4771    0.5597 H   0  0  0  0  0  0  0  0  0  0  0  0
   -4.9974   -1.5546    0.7270 H   0  0  0  0  0  0  0  0  0  0  0  0
    0.1292   -0.4439   -0.8640 H   0  0  0  0  0  0  0  0  0  0  0  0
    1.4795   -4.7527   -0.8510 H   0  0  0  0  0  0  0  0  0  0  0  0
    4.5715   -2.0244   -0.5532 H   0  0  0  0  0  0  0  0  0  0  0  0
    3.2146    0.4444   -1.7389 H   0  0  0  0  0  0  0  0  0  0  0  0
    2.3308    4.0018    2.1476 H   0  0  0  0  0  0  0  0  0  0  0  0
    1.8194    1.7670    2.8923 H   0  0  0  0  0  0  0  0  0  0  0  0
    1.6301   -1.6560    2.1418 H   0  0  0  0  0  0  0  0  0  0  0  0
  2  1  2  0  0  0  0
  3 28  1  0  0  0  0
  3 29  1  0  0  0  0
  3  2  1  0  0  0  0
  4  2  1  0  0  0  0
  4  9  2  0  0  0  0
  5  4  1  0  0  0  0
  6  5  2  0  0  0  0
  6  7  1  0  0  0  0
  7  8  2  0  0  0  0
  8  9  1  0  0  0  0
  8 32  1  0  0  0  0
  9 33  1  0  0  0  0
 10  7  1  0  0  0  0
 10 11  1  0  0  0  0
 11 12  2  0  0  0  0
 13 17  2  0  0  0  0
 13 11  1  0  0  0  0
 14 13  1  0  0  0  0
 15 14  2  0  0  0  0
 15 16  1  0  0  0  0
 16 17  1  0  0  0  0
 17 18  1  0  0  0  0
 18 25  2  0  0  0  0
 19 20  2  0  0  0  0
 19 18  1  0  0  0  0
 20 22  1  0  0  0  0
 21 20  1  0  0  0  0
 22 23  1  0  0  0  0
 22 24  2  0  0  0  0
 23 38  1  0  0  0  0
 24 39  1  0  0  0  0
 25 24  1  0  0  0  0
 25 26  1  0  0  0  0
 27  3  1  0  0  0  0
 30  5  1  0  0  0  0
 31  6  1  0  0  0  0
 34 10  1  0  0  0  0
 35 14  1  0  0  0  0
 36 16  1  0  0  0  0
 37 19  1  0  0  0  0
 40 26  1  0  0  0  0
M  END
