omegapdb_1qxw_11.log
 OpenBabel10161801213D
Gaussian 16 # PM6 Opt
 36 36  0  0  1  0  0  0  0  0999 V2000
   -3.8695   -2.0327   -0.1538 C   0  0  0  0  0  0  0  0  0  0  0  0
   -4.8514   -0.9952    0.3539 C   0  0  0  0  0  0  0  0  0  0  0  0
   -3.6741   -0.5564   -0.5036 C   0  0  0  0  0  0  0  0  0  0  0  0
   -2.6242    0.2600    0.1085 N   0  0  0  0  0  0  0  0  0  0  0  0
   -1.2902    0.0181   -0.5211 C   0  0  0  0  0  0  0  0  0  0  0  0
   -0.2929    1.0271    0.0809 C   0  0  0  0  0  0  0  0  0  0  0  0
    1.1344    0.9985   -0.5675 C   0  0  1  0  0  0  0  0  0  0  0  0
    1.9261    2.2159   -0.2679 N   0  0  0  0  0  0  0  0  0  0  0  0
    1.8785   -0.2695   -0.1076 C   0  0  0  0  0  0  0  0  0  0  0  0
    3.2100   -0.4466   -0.8460 C   0  0  0  0  0  0  0  0  0  0  0  0
    3.9459   -1.7262   -0.4258 C   0  0  0  0  0  0  0  0  0  0  0  0
    4.5365   -1.6385    0.9799 C   0  0  0  0  0  0  0  0  0  0  0  0
   -0.7276    2.3742   -0.0188 O   0  0  0  0  0  0  0  0  0  0  0  0
   -0.2447    0.7328    1.4816 O   0  0  0  0  0  0  0  0  0  0  0  0
   -4.1763   -2.7317   -0.9269 H   0  0  0  0  0  0  0  0  0  0  0  0
   -3.1985   -2.5197    0.5487 H   0  0  0  0  0  0  0  0  0  0  0  0
   -5.8554   -0.9516   -0.0631 H   0  0  0  0  0  0  0  0  0  0  0  0
   -4.8770   -0.7545    1.4148 H   0  0  0  0  0  0  0  0  0  0  0  0
   -3.8668   -0.2363   -1.5393 H   0  0  0  0  0  0  0  0  0  0  0  0
   -2.5496    0.0825    1.1224 H   0  0  0  0  0  0  0  0  0  0  0  0
   -1.3679    0.1817   -1.6186 H   0  0  0  0  0  0  0  0  0  0  0  0
   -0.9103   -1.0166   -0.3697 H   0  0  0  0  0  0  0  0  0  0  0  0
    0.9949    0.9747   -1.6823 H   0  0  0  0  0  0  0  0  0  0  0  0
    2.1738    2.2597    0.7153 H   0  0  0  0  0  0  0  0  0  0  0  0
    1.3837    3.0530   -0.4837 H   0  0  0  0  0  0  0  0  0  0  0  0
    1.2368   -1.1574   -0.2672 H   0  0  0  0  0  0  0  0  0  0  0  0
    2.0504   -0.2285    0.9876 H   0  0  0  0  0  0  0  0  0  0  0  0
    3.8539    0.4399   -0.6688 H   0  0  0  0  0  0  0  0  0  0  0  0
    3.0338   -0.4635   -1.9388 H   0  0  0  0  0  0  0  0  0  0  0  0
    3.2632   -2.5956   -0.4906 H   0  0  0  0  0  0  0  0  0  0  0  0
    4.7582   -1.9283   -1.1527 H   0  0  0  0  0  0  0  0  0  0  0  0
    5.2346   -0.7981    1.0697 H   0  0  0  0  0  0  0  0  0  0  0  0
    3.7566   -1.4949    1.7364 H   0  0  0  0  0  0  0  0  0  0  0  0
    5.0834   -2.5515    1.2389 H   0  0  0  0  0  0  0  0  0  0  0  0
   -1.7141    2.4476    0.0484 H   0  0  0  0  0  0  0  0  0  0  0  0
   -0.0065    1.5303    1.9960 H   0  0  0  0  0  0  0  0  0  0  0  0
  1  2  1  0  0  0  0
  1 16  1  0  0  0  0
  2 18  1  0  0  0  0
  3  1  1  0  0  0  0
  3  4  1  0  0  0  0
  3  2  1  0  0  0  0
  4 20  1  0  0  0  0
  5 22  1  0  0  0  0
  5  6  1  0  0  0  0
  5  4  1  0  0  0  0
  6 14  1  0  0  0  0
  7 23  1  6  0  0  0
  7  8  1  0  0  0  0
  7  9  1  0  0  0  0
  7  6  1  0  0  0  0
  8 24  1  0  0  0  0
  9 27  1  0  0  0  0
 10 28  1  0  0  0  0
 10 11  1  0  0  0  0
 10  9  1  0  0  0  0
 11 12  1  0  0  0  0
 12 32  1  0  0  0  0
 12 34  1  0  0  0  0
 12 33  1  0  0  0  0
 13 35  1  0  0  0  0
 13  6  1  0  0  0  0
 14 36  1  0  0  0  0
 15  1  1  0  0  0  0
 17  2  1  0  0  0  0
 19  3  1  0  0  0  0
 21  5  1  0  0  0  0
 25  8  1  0  0  0  0
 26  9  1  0  0  0  0
 29 10  1  0  0  0  0
 30 11  1  0  0  0  0
 31 11  1  0  0  0  0
M  END
