omegapdb_1z1r_07.log
 OpenBabel10161801213D
Gaussian 16 # PM6 Opt
 66 68  0  0  1  0  0  0  0  0999 V2000
    0.5456   -0.0122    1.3942 C   0  0  2  0  0  0  0  0  0  0  0  0
    0.6547   -1.4262    0.7714 C   0  0  0  0  0  0  0  0  0  0  0  0
   -0.6773   -1.9560    0.3179 C   0  0  0  0  0  0  0  0  0  0  0  0
   -0.8572   -2.3543   -1.0178 C   0  0  0  0  0  0  0  0  0  0  0  0
   -2.1147   -2.7296   -1.4852 C   0  0  0  0  0  0  0  0  0  0  0  0
   -3.2021   -2.6991   -0.5942 C   0  0  0  0  0  0  0  0  0  0  0  0
   -3.0352   -2.3601    0.7560 C   0  0  0  0  0  0  0  0  0  0  0  0
   -1.7647   -2.0046    1.2058 C   0  0  0  0  0  0  0  0  0  0  0  0
   -4.4094   -3.0627   -1.1582 O   0  0  0  0  0  0  0  0  0  0  0  0
   -5.6189   -2.4622   -0.6151 C   0  0  0  0  0  0  0  0  0  0  0  0
   -5.9167   -1.1522   -1.3457 C   0  0  0  0  0  0  0  0  0  0  0  0
   -4.9480   -0.0162   -1.0032 C   0  0  0  0  0  0  0  0  0  0  0  0
   -5.0664    0.4102    0.4419 C   0  0  0  0  0  0  0  0  0  0  0  0
   -5.9793    0.0963    1.1862 O   0  0  0  0  0  0  0  0  0  0  0  0
   -4.0956    1.2922    0.9616 N   0  0  0  0  0  0  0  0  0  0  0  0
   -2.8017    1.6033    0.3365 C   0  0  2  0  0  0  0  0  0  0  0  0
   -1.6795    1.1231    1.3013 C   0  0  0  0  0  0  0  0  0  0  0  0
   -1.8440    1.0720    2.5096 O   0  0  0  0  0  0  0  0  0  0  0  0
   -0.4824    0.7911    0.6889 N   0  0  0  0  0  0  0  0  0  0  0  0
   -2.6730    3.1235    0.1087 C   0  0  0  0  0  0  0  0  0  0  0  0
   -1.5550    3.4455   -0.8578 C   0  0  0  0  0  0  0  0  0  0  0  0
   -0.8318    2.6073   -1.3839 O   0  0  0  0  0  0  0  0  0  0  0  0
   -1.3627    4.7891   -1.1480 N   0  0  0  0  0  0  0  0  0  0  0  0
    1.9205    0.7112    1.3833 C   0  0  2  0  0  0  0  0  0  0  0  0
    1.9960    1.5844    2.5166 O   0  0  0  0  0  0  0  0  0  0  0  0
    2.2600    1.5454    0.1239 C   0  0  0  0  0  0  0  0  0  0  0  0
    2.6957    0.6403   -0.9619 N   0  0  0  0  0  0  0  0  0  0  0  0
    4.3641    0.6553   -1.4040 S   0  0  0  0  0  0  0  0  0  0  0  0
    4.9039    1.9556   -1.0624 O   0  0  0  0  0  0  0  0  0  0  0  0
    4.3767    0.1876   -2.7758 O   0  0  0  0  0  0  0  0  0  0  0  0
    5.0519   -0.5382   -0.3613 C   0  0  0  0  0  0  0  0  0  0  0  0
    5.4998   -0.1763    0.9135 C   0  0  0  0  0  0  0  0  0  0  0  0
    6.0474   -1.1448    1.7598 C   0  0  0  0  0  0  0  0  0  0  0  0
    6.1518   -2.4712    1.3260 C   0  0  0  0  0  0  0  0  0  0  0  0
    5.7123   -2.8307    0.0470 C   0  0  0  0  0  0  0  0  0  0  0  0
    5.1630   -1.8619   -0.7981 C   0  0  0  0  0  0  0  0  0  0  0  0
    0.2302   -0.1109    2.4761 H   0  0  0  0  0  0  0  0  0  0  0  0
    1.3745   -1.4110   -0.0753 H   0  0  0  0  0  0  0  0  0  0  0  0
    1.1004   -2.1161    1.5182 H   0  0  0  0  0  0  0  0  0  0  0  0
   -0.0104   -2.3579   -1.7044 H   0  0  0  0  0  0  0  0  0  0  0  0
   -2.2718   -3.0375   -2.5163 H   0  0  0  0  0  0  0  0  0  0  0  0
   -3.8807   -2.3762    1.4425 H   0  0  0  0  0  0  0  0  0  0  0  0
   -1.6257   -1.7351    2.2552 H   0  0  0  0  0  0  0  0  0  0  0  0
   -5.5477   -2.3322    0.4798 H   0  0  0  0  0  0  0  0  0  0  0  0
   -6.3684   -3.2423   -0.8497 H   0  0  0  0  0  0  0  0  0  0  0  0
   -6.9559   -0.8413   -1.0989 H   0  0  0  0  0  0  0  0  0  0  0  0
   -5.8884   -1.3304   -2.4408 H   0  0  0  0  0  0  0  0  0  0  0  0
   -5.1571    0.8567   -1.6583 H   0  0  0  0  0  0  0  0  0  0  0  0
   -3.9072   -0.3305   -1.2432 H   0  0  0  0  0  0  0  0  0  0  0  0
   -4.1503    1.4936    1.9725 H   0  0  0  0  0  0  0  0  0  0  0  0
   -2.7036    1.0734   -0.6532 H   0  0  0  0  0  0  0  0  0  0  0  0
   -0.3782    0.8716   -0.3318 H   0  0  0  0  0  0  0  0  0  0  0  0
   -3.6422    3.5170   -0.2734 H   0  0  0  0  0  0  0  0  0  0  0  0
   -2.5209    3.6437    1.0803 H   0  0  0  0  0  0  0  0  0  0  0  0
   -1.9129    5.5310   -0.7543 H   0  0  0  0  0  0  0  0  0  0  0  0
   -0.6315    5.0633   -1.7907 H   0  0  0  0  0  0  0  0  0  0  0  0
    2.7365   -0.0210    1.5998 H   0  0  0  0  0  0  0  0  0  0  0  0
    1.2230    2.1864    2.5564 H   0  0  0  0  0  0  0  0  0  0  0  0
    3.0575    2.2814    0.4038 H   0  0  0  0  0  0  0  0  0  0  0  0
    1.3971    2.1733   -0.1949 H   0  0  0  0  0  0  0  0  0  0  0  0
    2.0072    0.5828   -1.7228 H   0  0  0  0  0  0  0  0  0  0  0  0
    5.4327    0.8650    1.2490 H   0  0  0  0  0  0  0  0  0  0  0  0
    6.3949   -0.8650    2.7538 H   0  0  0  0  0  0  0  0  0  0  0  0
    6.5801   -3.2269    1.9863 H   0  0  0  0  0  0  0  0  0  0  0  0
    5.8010   -3.8621   -0.2917 H   0  0  0  0  0  0  0  0  0  0  0  0
    4.8297   -2.1399   -1.8045 H   0  0  0  0  0  0  0  0  0  0  0  0
  1 37  1  1  0  0  0
  2  1  1  0  0  0  0
  2 39  1  0  0  0  0
  3  2  1  0  0  0  0
  3  8  2  0  0  0  0
  4  3  1  0  0  0  0
  5  4  2  0  0  0  0
  5  6  1  0  0  0  0
  6  7  2  0  0  0  0
  7  8  1  0  0  0  0
  7 42  1  0  0  0  0
  8 43  1  0  0  0  0
  9 10  1  0  0  0  0
  9  6  1  0  0  0  0
 10 44  1  0  0  0  0
 11 46  1  0  0  0  0
 11 12  1  0  0  0  0
 11 10  1  0  0  0  0
 12 13  1  0  0  0  0
 13 15  1  0  0  0  0
 13 14  2  0  0  0  0
 15 50  1  0  0  0  0
 16 51  1  6  0  0  0
 16 15  1  0  0  0  0
 16 17  1  0  0  0  0
 17 18  2  0  0  0  0
 19 17  1  0  0  0  0
 19  1  1  0  0  0  0
 20 16  1  0  0  0  0
 20 54  1  0  0  0  0
 21 20  1  0  0  0  0
 22 21  2  0  0  0  0
 23 21  1  0  0  0  0
 23 55  1  0  0  0  0
 24  1  1  0  0  0  0
 24 57  1  1  0  0  0
 24 25  1  0  0  0  0
 25 58  1  0  0  0  0
 26 59  1  0  0  0  0
 26 24  1  0  0  0  0
 27 26  1  0  0  0  0
 28 29  2  0  0  0  0
 28 27  1  0  0  0  0
 28 31  1  0  0  0  0
 30 28  2  0  0  0  0
 31 32  1  0  0  0  0
 32 62  1  0  0  0  0
 32 33  2  0  0  0  0
 33 63  1  0  0  0  0
 34 33  1  0  0  0  0
 34 64  1  0  0  0  0
 35 34  2  0  0  0  0
 36 31  2  0  0  0  0
 36 35  1  0  0  0  0
 38  2  1  0  0  0  0
 40  4  1  0  0  0  0
 41  5  1  0  0  0  0
 45 10  1  0  0  0  0
 47 11  1  0  0  0  0
 48 12  1  0  0  0  0
 49 12  1  0  0  0  0
 52 19  1  0  0  0  0
 53 20  1  0  0  0  0
 56 23  1  0  0  0  0
 60 26  1  0  0  0  0
 61 27  1  0  0  0  0
 65 35  1  0  0  0  0
 66 36  1  0  0  0  0
M  END
