omegapdb_1qxw_15.log
 OpenBabel10161801213D
Gaussian 16 # PM6 Opt
 36 36  0  0  1  0  0  0  0  0999 V2000
   -4.9171   -1.1724    0.3142 C   0  0  0  0  0  0  0  0  0  0  0  0
   -4.6033   -0.6360   -1.0688 C   0  0  0  0  0  0  0  0  0  0  0  0
   -3.9030   -0.0492    0.1585 C   0  0  0  0  0  0  0  0  0  0  0  0
   -2.4986   -0.3244    0.4635 N   0  0  0  0  0  0  0  0  0  0  0  0
   -1.5753    0.5406   -0.3318 C   0  0  0  0  0  0  0  0  0  0  0  0
   -0.1401    0.2956    0.1747 C   0  0  0  0  0  0  0  0  0  0  0  0
    0.9524    1.1836   -0.4974 C   0  0  1  0  0  0  0  0  0  0  0  0
    0.4931    2.5962   -0.3969 N   0  0  0  0  0  0  0  0  0  0  0  0
    2.3442    0.9530    0.1324 C   0  0  0  0  0  0  0  0  0  0  0  0
    3.0475   -0.2861   -0.4315 C   0  0  0  0  0  0  0  0  0  0  0  0
    4.4002   -0.5259    0.2526 C   0  0  0  0  0  0  0  0  0  0  0  0
    5.0997   -1.7643   -0.3019 C   0  0  0  0  0  0  0  0  0  0  0  0
    0.1072   -1.0880   -0.0878 O   0  0  0  0  0  0  0  0  0  0  0  0
    0.0045    0.4748    1.5749 O   0  0  0  0  0  0  0  0  0  0  0  0
   -5.8802   -0.9568    0.7713 H   0  0  0  0  0  0  0  0  0  0  0  0
   -4.5883   -2.1725    0.5887 H   0  0  0  0  0  0  0  0  0  0  0  0
   -5.3444   -0.0440   -1.5980 H   0  0  0  0  0  0  0  0  0  0  0  0
   -4.0478   -1.2556   -1.7674 H   0  0  0  0  0  0  0  0  0  0  0  0
   -4.1849    0.9647    0.4827 H   0  0  0  0  0  0  0  0  0  0  0  0
   -2.2607   -1.3135    0.2930 H   0  0  0  0  0  0  0  0  0  0  0  0
   -1.8406    1.6131   -0.1787 H   0  0  0  0  0  0  0  0  0  0  0  0
   -1.6201    0.3555   -1.4264 H   0  0  0  0  0  0  0  0  0  0  0  0
    0.9807    0.9122   -1.5867 H   0  0  0  0  0  0  0  0  0  0  0  0
    0.4142    2.8747    0.5809 H   0  0  0  0  0  0  0  0  0  0  0  0
    1.1606    3.2227   -0.8372 H   0  0  0  0  0  0  0  0  0  0  0  0
    2.9821    1.8421   -0.0338 H   0  0  0  0  0  0  0  0  0  0  0  0
    2.2398    0.8663    1.2356 H   0  0  0  0  0  0  0  0  0  0  0  0
    3.1909   -0.1798   -1.5244 H   0  0  0  0  0  0  0  0  0  0  0  0
    2.3990   -1.1821   -0.3038 H   0  0  0  0  0  0  0  0  0  0  0  0
    4.2566   -0.6353    1.3459 H   0  0  0  0  0  0  0  0  0  0  0  0
    5.0512    0.3608    0.1220 H   0  0  0  0  0  0  0  0  0  0  0  0
    6.0659   -1.9263    0.1898 H   0  0  0  0  0  0  0  0  0  0  0  0
    5.2915   -1.6741   -1.3774 H   0  0  0  0  0  0  0  0  0  0  0  0
    4.5013   -2.6702   -0.1516 H   0  0  0  0  0  0  0  0  0  0  0  0
    0.9454   -1.3873    0.3456 H   0  0  0  0  0  0  0  0  0  0  0  0
   -0.7981    0.1560    2.0618 H   0  0  0  0  0  0  0  0  0  0  0  0
  1 16  1  0  0  0  0
  1 15  1  0  0  0  0
  2  3  1  0  0  0  0
  2  1  1  0  0  0  0
  3  1  1  0  0  0  0
  3  4  1  0  0  0  0
  3 19  1  0  0  0  0
  5 21  1  0  0  0  0
  5  6  1  0  0  0  0
  5  4  1  0  0  0  0
  6 14  1  0  0  0  0
  7 23  1  6  0  0  0
  7  8  1  0  0  0  0
  7  9  1  0  0  0  0
  7  6  1  0  0  0  0
  8 24  1  0  0  0  0
  9 27  1  0  0  0  0
 10 29  1  0  0  0  0
 10  9  1  0  0  0  0
 10 11  1  0  0  0  0
 11 30  1  0  0  0  0
 12 34  1  0  0  0  0
 12 32  1  0  0  0  0
 12 11  1  0  0  0  0
 13  6  1  0  0  0  0
 13 35  1  0  0  0  0
 14 36  1  0  0  0  0
 17  2  1  0  0  0  0
 18  2  1  0  0  0  0
 20  4  1  0  0  0  0
 22  5  1  0  0  0  0
 25  8  1  0  0  0  0
 26  9  1  0  0  0  0
 28 10  1  0  0  0  0
 31 11  1  0  0  0  0
 33 12  1  0  0  0  0
M  END
