omegapdb_1xom_19.log
 OpenBabel10161801213D
Gaussian 16 # PM6 Opt
 50 52  0  0  1  0  0  0  0  0999 V2000
   -6.1162    0.4904   -0.0398 O   0  0  0  0  0  0  0  0  0  0  0  0
   -5.1714    1.4806    0.1330 C   0  0  0  0  0  0  0  0  0  0  0  0
   -5.5864    2.6025    0.2621 O   0  0  0  0  0  0  0  0  0  0  0  0
   -3.7110    1.0507    0.1411 C   0  0  1  0  0  0  0  0  0  0  0  0
   -3.4446    0.0846    1.3076 C   0  0  0  0  0  0  0  0  0  0  0  0
   -1.9877   -0.3869    1.3102 C   0  0  0  0  0  0  0  0  0  0  0  0
   -1.5722   -1.0165   -0.0475 C   0  0  2  0  0  0  0  0  0  0  0  0
   -1.8725   -0.0372   -1.2152 C   0  0  0  0  0  0  0  0  0  0  0  0
   -3.3297    0.4335   -1.2149 C   0  0  0  0  0  0  0  0  0  0  0  0
   -2.3970   -2.2247   -0.2534 C   0  0  0  0  0  0  0  0  0  0  0  0
   -3.0784   -3.1434   -0.4126 N   0  0  0  0  0  0  0  0  0  0  0  0
   -0.0836   -1.3558   -0.0246 C   0  0  0  0  0  0  0  0  0  0  0  0
    0.3811   -2.6559   -0.1649 C   0  0  0  0  0  0  0  0  0  0  0  0
    1.7633   -2.9394   -0.1385 C   0  0  0  0  0  0  0  0  0  0  0  0
    2.6730   -1.9089    0.0303 C   0  0  0  0  0  0  0  0  0  0  0  0
    4.0424   -2.0108    0.0804 O   0  0  0  0  0  0  0  0  0  0  0  0
    4.6091   -3.3373   -0.0631 C   0  0  0  0  0  0  0  0  0  0  0  0
    2.2003   -0.5574    0.1769 C   0  0  0  0  0  0  0  0  0  0  0  0
    0.8401   -0.2944    0.1480 C   0  0  0  0  0  0  0  0  0  0  0  0
    3.2083    0.3521    0.3396 O   0  0  0  0  0  0  0  0  0  0  0  0
    2.8718    1.7690    0.5273 C   0  0  0  0  0  0  0  0  0  0  0  0
    2.4846    2.4109   -0.8139 C   0  0  0  0  0  0  0  0  0  0  0  0
    3.3580    3.6689   -0.9471 C   0  0  0  0  0  0  0  0  0  0  0  0
    4.5959    3.4401   -0.0589 C   0  0  0  0  0  0  0  0  0  0  0  0
    4.2160    2.3661    0.9739 C   0  0  0  0  0  0  0  0  0  0  0  0
   -5.7543   -0.4214   -0.1434 H   0  0  0  0  0  0  0  0  0  0  0  0
   -3.0956    1.9770    0.2975 H   0  0  0  0  0  0  0  0  0  0  0  0
   -3.6747    0.5846    2.2709 H   0  0  0  0  0  0  0  0  0  0  0  0
   -4.1257   -0.7887    1.2549 H   0  0  0  0  0  0  0  0  0  0  0  0
   -1.3159    0.4635    1.5404 H   0  0  0  0  0  0  0  0  0  0  0  0
   -1.8263   -1.1205    2.1255 H   0  0  0  0  0  0  0  0  0  0  0  0
   -1.6297   -0.5242   -2.1810 H   0  0  0  0  0  0  0  0  0  0  0  0
   -1.1939    0.8358   -1.1448 H   0  0  0  0  0  0  0  0  0  0  0  0
   -4.0018   -0.4130   -1.4618 H   0  0  0  0  0  0  0  0  0  0  0  0
   -3.4794    1.1785   -2.0234 H   0  0  0  0  0  0  0  0  0  0  0  0
   -0.3013   -3.4955   -0.2992 H   0  0  0  0  0  0  0  0  0  0  0  0
    2.0904   -3.9697   -0.2517 H   0  0  0  0  0  0  0  0  0  0  0  0
    4.3602   -3.7559   -1.0421 H   0  0  0  0  0  0  0  0  0  0  0  0
    5.6839   -3.1234    0.0109 H   0  0  0  0  0  0  0  0  0  0  0  0
    4.2815   -3.9837    0.7557 H   0  0  0  0  0  0  0  0  0  0  0  0
    0.4743    0.7233    0.2557 H   0  0  0  0  0  0  0  0  0  0  0  0
    2.0835    1.8399    1.2986 H   0  0  0  0  0  0  0  0  0  0  0  0
    1.4126    2.6502   -0.8724 H   0  0  0  0  0  0  0  0  0  0  0  0
    2.6950    1.6999   -1.6375 H   0  0  0  0  0  0  0  0  0  0  0  0
    3.6439    3.8506   -1.9963 H   0  0  0  0  0  0  0  0  0  0  0  0
    2.8027    4.5641   -0.6161 H   0  0  0  0  0  0  0  0  0  0  0  0
    4.9167    4.3740    0.4305 H   0  0  0  0  0  0  0  0  0  0  0  0
    5.4506    3.0985   -0.6703 H   0  0  0  0  0  0  0  0  0  0  0  0
    4.9826    1.5640    1.0207 H   0  0  0  0  0  0  0  0  0  0  0  0
    4.1445    2.7833    1.9911 H   0  0  0  0  0  0  0  0  0  0  0  0
  1  2  1  0  0  0  0
  2  4  1  0  0  0  0
  2  3  2  0  0  0  0
  4 27  1  1  0  0  0
  4  5  1  0  0  0  0
  5  6  1  0  0  0  0
  5 28  1  0  0  0  0
  6 30  1  0  0  0  0
  6 31  1  0  0  0  0
  7 10  1  6  0  0  0
  7 12  1  0  0  0  0
  7  6  1  0  0  0  0
  8  9  1  0  0  0  0
  8 33  1  0  0  0  0
  8  7  1  0  0  0  0
  9  4  1  0  0  0  0
 11 10  3  0  0  0  0
 12 19  2  0  0  0  0
 13 14  2  0  0  0  0
 13 12  1  0  0  0  0
 14 15  1  0  0  0  0
 15 16  1  0  0  0  0
 15 18  2  0  0  0  0
 17 39  1  0  0  0  0
 17 16  1  0  0  0  0
 17 40  1  0  0  0  0
 18 20  1  0  0  0  0
 19 18  1  0  0  0  0
 19 41  1  0  0  0  0
 20 21  1  0  0  0  0
 21 25  1  0  0  0  0
 21 42  1  0  0  0  0
 22 21  1  0  0  0  0
 23 22  1  0  0  0  0
 23 46  1  0  0  0  0
 23 24  1  0  0  0  0
 24 47  1  0  0  0  0
 24 25  1  0  0  0  0
 25 49  1  0  0  0  0
 25 50  1  0  0  0  0
 26  1  1  0  0  0  0
 29  5  1  0  0  0  0
 32  8  1  0  0  0  0
 34  9  1  0  0  0  0
 35  9  1  0  0  0  0
 36 13  1  0  0  0  0
 37 14  1  0  0  0  0
 38 17  1  0  0  0  0
 43 22  1  0  0  0  0
 44 22  1  0  0  0  0
 45 23  1  0  0  0  0
 48 24  1  0  0  0  0
M  END
