omegapdb_1gs5_05.log
 OpenBabel10161801213D
Gaussian 16 # PM6 Opt
 24 23  0  0  1  0  0  0  0  0999 V2000
    0.6060    0.2040   -0.1613 C   0  0  2  0  0  0  0  0  0  0  0  0
    0.4950    1.7094    0.1040 C   0  0  0  0  0  0  0  0  0  0  0  0
    0.9485    2.3718    1.0029 O   0  0  0  0  0  0  0  0  0  0  0  0
   -0.2642    2.2951   -0.8810 O   0  0  0  0  0  0  0  0  0  0  0  0
   -0.6448   -0.5129    0.3811 C   0  0  0  0  0  0  0  0  0  0  0  0
   -1.8557   -0.2709   -0.5199 C   0  0  0  0  0  0  0  0  0  0  0  0
   -3.1256   -0.6714    0.1652 C   0  0  0  0  0  0  0  0  0  0  0  0
   -3.3536   -0.9056    1.3278 O   0  0  0  0  0  0  0  0  0  0  0  0
   -4.1428   -0.7488   -0.7607 O   0  0  0  0  0  0  0  0  0  0  0  0
    1.8248   -0.2856    0.5033 N   0  0  0  0  0  0  0  0  0  0  0  0
    2.8626   -0.8717   -0.2487 C   0  0  0  0  0  0  0  0  0  0  0  0
    2.7320   -1.0299   -1.4478 O   0  0  0  0  0  0  0  0  0  0  0  0
    4.0645   -1.2729    0.5506 C   0  0  0  0  0  0  0  0  0  0  0  0
    0.7002    0.0311   -1.2794 H   0  0  0  0  0  0  0  0  0  0  0  0
   -0.3587    3.2803   -0.7641 H   0  0  0  0  0  0  0  0  0  0  0  0
   -0.8677   -0.1961    1.4237 H   0  0  0  0  0  0  0  0  0  0  0  0
   -0.4376   -1.6034    0.4515 H   0  0  0  0  0  0  0  0  0  0  0  0
   -1.7541   -0.8151   -1.4871 H   0  0  0  0  0  0  0  0  0  0  0  0
   -1.9276    0.8055   -0.8214 H   0  0  0  0  0  0  0  0  0  0  0  0
   -5.0154   -1.0003   -0.3543 H   0  0  0  0  0  0  0  0  0  0  0  0
    1.9190   -0.0843    1.4961 H   0  0  0  0  0  0  0  0  0  0  0  0
    4.5598   -0.4126    1.0231 H   0  0  0  0  0  0  0  0  0  0  0  0
    3.8253   -1.9982    1.3405 H   0  0  0  0  0  0  0  0  0  0  0  0
    4.8113   -1.7499   -0.1079 H   0  0  0  0  0  0  0  0  0  0  0  0
  1 14  1  6  0  0  0
  1  2  1  0  0  0  0
  1  5  1  0  0  0  0
  1 10  1  0  0  0  0
  2  3  2  0  0  0  0
  4 15  1  0  0  0  0
  4  2  1  0  0  0  0
  5 17  1  0  0  0  0
  5 16  1  0  0  0  0
  6  7  1  0  0  0  0
  6  5  1  0  0  0  0
  7  8  2  0  0  0  0
  9 20  1  0  0  0  0
  9  7  1  0  0  0  0
 10 21  1  0  0  0  0
 11 10  1  0  0  0  0
 11 13  1  0  0  0  0
 12 11  2  0  0  0  0
 13 22  1  0  0  0  0
 13 23  1  0  0  0  0
 18  6  1  0  0  0  0
 19  6  1  0  0  0  0
 24 13  1  0  0  0  0
M  END
