omegapdb_2f7p_04.log
 OpenBabel10161801213D
Gaussian 16 # PM6 Opt
 34 35  0  0  1  0  0  0  0  0999 V2000
   -0.9514    0.1884   -0.6758 C   0  0  1  0  0  0  0  0  0  0  0  0
    0.4016    0.0025   -0.0819 N   0  0  0  0  0  0  0  0  0  0  0  0
    1.4671   -0.1609   -1.1232 C   0  0  0  0  0  0  0  0  0  0  0  0
    2.8173   -0.1062   -0.4507 C   0  0  0  0  0  0  0  0  0  0  0  0
    3.3132   -1.2339    0.2195 C   0  0  0  0  0  0  0  0  0  0  0  0
    4.5646   -1.1834    0.8393 C   0  0  0  0  0  0  0  0  0  0  0  0
    5.3241   -0.0097    0.7945 C   0  0  0  0  0  0  0  0  0  0  0  0
    4.8281    1.1167    0.1304 C   0  0  0  0  0  0  0  0  0  0  0  0
    3.5764    1.0722   -0.4902 C   0  0  0  0  0  0  0  0  0  0  0  0
   -1.5904   -1.2185   -0.9303 C   0  0  1  0  0  0  0  0  0  0  0  0
   -1.0418   -2.2567   -0.1170 O   0  0  0  0  0  0  0  0  0  0  0  0
   -3.0940   -1.1050   -0.5394 C   0  0  1  0  0  0  0  0  0  0  0  0
   -3.4456   -2.0249    0.4888 O   0  0  0  0  0  0  0  0  0  0  0  0
   -3.3128    0.3288    0.0371 C   0  0  1  0  0  0  0  0  0  0  0  0
   -4.0533    0.3086    1.2432 O   0  0  0  0  0  0  0  0  0  0  0  0
   -1.9015    0.8861    0.3131 C   0  0  2  0  0  0  0  0  0  0  0  0
   -1.8264    2.6729    0.0237 S   0  0  0  0  0  0  0  0  0  0  0  0
   -0.9268    0.7373   -1.6542 H   0  0  0  0  0  0  0  0  0  0  0  0
    0.6382    0.7869    0.5413 H   0  0  0  0  0  0  0  0  0  0  0  0
    1.4017    0.5982   -1.9353 H   0  0  0  0  0  0  0  0  0  0  0  0
    1.3159   -1.1525   -1.6122 H   0  0  0  0  0  0  0  0  0  0  0  0
    2.7196   -2.1462    0.2609 H   0  0  0  0  0  0  0  0  0  0  0  0
    4.9483   -2.0604    1.3587 H   0  0  0  0  0  0  0  0  0  0  0  0
    6.2993    0.0272    1.2767 H   0  0  0  0  0  0  0  0  0  0  0  0
    5.4173    2.0319    0.0968 H   0  0  0  0  0  0  0  0  0  0  0  0
    3.1961    1.9538   -1.0028 H   0  0  0  0  0  0  0  0  0  0  0  0
   -1.4488   -1.5657   -1.9730 H   0  0  0  0  0  0  0  0  0  0  0  0
   -0.3160   -1.8904    0.4728 H   0  0  0  0  0  0  0  0  0  0  0  0
   -3.7814   -1.3296   -1.3792 H   0  0  0  0  0  0  0  0  0  0  0  0
   -2.6216   -2.5229    0.7984 H   0  0  0  0  0  0  0  0  0  0  0  0
   -3.9103    0.9681   -0.6492 H   0  0  0  0  0  0  0  0  0  0  0  0
   -4.0432   -0.6143    1.6413 H   0  0  0  0  0  0  0  0  0  0  0  0
   -1.6269    0.6645    1.3741 H   0  0  0  0  0  0  0  0  0  0  0  0
   -2.7683    3.0665    0.9132 H   0  0  0  0  0  0  0  0  0  0  0  0
  1 18  1  6  0  0  0
  1  2  1  0  0  0  0
  1 16  1  0  0  0  0
  2 19  1  0  0  0  0
  3  4  1  0  0  0  0
  3  2  1  0  0  0  0
  4  5  1  0  0  0  0
  5 22  1  0  0  0  0
  5  6  2  0  0  0  0
  6 23  1  0  0  0  0
  7  6  1  0  0  0  0
  7 24  1  0  0  0  0
  8  7  2  0  0  0  0
  9  4  2  0  0  0  0
  9  8  1  0  0  0  0
 10 27  1  6  0  0  0
 10  1  1  0  0  0  0
 10 12  1  0  0  0  0
 10 11  1  0  0  0  0
 11 28  1  0  0  0  0
 12 29  1  6  0  0  0
 12 14  1  0  0  0  0
 12 13  1  0  0  0  0
 13 30  1  0  0  0  0
 14 31  1  6  0  0  0
 14 16  1  0  0  0  0
 14 15  1  0  0  0  0
 15 32  1  0  0  0  0
 16 33  1  1  0  0  0
 17 16  1  0  0  0  0
 17 34  1  0  0  0  0
 20  3  1  0  0  0  0
 21  3  1  0  0  0  0
 25  8  1  0  0  0  0
 26  9  1  0  0  0  0
M  END
