omegapdb_1qxw_06.log
 OpenBabel10161801213D
Gaussian 16 # PM6 Opt
 36 36  0  0  1  0  0  0  0  0999 V2000
    3.6426   -2.1689   -0.1491 C   0  0  0  0  0  0  0  0  0  0  0  0
    4.7939   -1.2283    0.1456 C   0  0  0  0  0  0  0  0  0  0  0  0
    3.5854   -0.7235   -0.6332 C   0  0  0  0  0  0  0  0  0  0  0  0
    2.6768    0.1847    0.0881 N   0  0  0  0  0  0  0  0  0  0  0  0
    1.3464    0.2813   -0.5832 C   0  0  0  0  0  0  0  0  0  0  0  0
    0.4041    1.0512    0.3560 C   0  0  0  0  0  0  0  0  0  0  0  0
   -1.0873    1.1445   -0.0893 C   0  0  1  0  0  0  0  0  0  0  0  0
   -1.0839    1.6723   -1.4859 N   0  0  0  0  0  0  0  0  0  0  0  0
   -1.7689   -0.2347   -0.0398 C   0  0  0  0  0  0  0  0  0  0  0  0
   -3.2976   -0.1214   -0.0100 C   0  0  0  0  0  0  0  0  0  0  0  0
   -3.9556   -1.5069    0.0681 C   0  0  0  0  0  0  0  0  0  0  0  0
   -5.4788   -1.4070    0.0995 C   0  0  0  0  0  0  0  0  0  0  0  0
    0.9312    2.3858    0.4564 O   0  0  0  0  0  0  0  0  0  0  0  0
    0.3810    0.5537    1.6851 O   0  0  0  0  0  0  0  0  0  0  0  0
    2.9929   -2.4793    0.6680 H   0  0  0  0  0  0  0  0  0  0  0  0
    3.7672   -2.9698   -0.8722 H   0  0  0  0  0  0  0  0  0  0  0  0
    5.7433   -1.3542   -0.3677 H   0  0  0  0  0  0  0  0  0  0  0  0
    4.9492   -0.8890    1.1689 H   0  0  0  0  0  0  0  0  0  0  0  0
    3.6977   -0.5336   -1.7105 H   0  0  0  0  0  0  0  0  0  0  0  0
    3.0961    1.1254    0.1457 H   0  0  0  0  0  0  0  0  0  0  0  0
    0.9415   -0.7394   -0.7607 H   0  0  0  0  0  0  0  0  0  0  0  0
    1.3691    0.7905   -1.5740 H   0  0  0  0  0  0  0  0  0  0  0  0
   -1.5980    1.8331    0.6354 H   0  0  0  0  0  0  0  0  0  0  0  0
   -0.6986    2.6157   -1.5030 H   0  0  0  0  0  0  0  0  0  0  0  0
   -2.0292    1.7161   -1.8531 H   0  0  0  0  0  0  0  0  0  0  0  0
   -1.4144   -0.7728    0.8660 H   0  0  0  0  0  0  0  0  0  0  0  0
   -1.4490   -0.8453   -0.9075 H   0  0  0  0  0  0  0  0  0  0  0  0
   -3.6605    0.4111   -0.9095 H   0  0  0  0  0  0  0  0  0  0  0  0
   -3.6161    0.4907    0.8563 H   0  0  0  0  0  0  0  0  0  0  0  0
   -3.5975   -2.0428    0.9693 H   0  0  0  0  0  0  0  0  0  0  0  0
   -3.6389   -2.1234   -0.7961 H   0  0  0  0  0  0  0  0  0  0  0  0
   -5.8710   -0.9167   -0.7986 H   0  0  0  0  0  0  0  0  0  0  0  0
   -5.8285   -0.8337    0.9657 H   0  0  0  0  0  0  0  0  0  0  0  0
   -5.9388   -2.4000    0.1575 H   0  0  0  0  0  0  0  0  0  0  0  0
    0.7810    2.7466    1.3547 H   0  0  0  0  0  0  0  0  0  0  0  0
    1.2500    0.1397    1.9306 H   0  0  0  0  0  0  0  0  0  0  0  0
  1  2  1  0  0  0  0
  1 15  1  0  0  0  0
  2 18  1  0  0  0  0
  3  1  1  0  0  0  0
  3  4  1  0  0  0  0
  3  2  1  0  0  0  0
  4 20  1  0  0  0  0
  5  4  1  0  0  0  0
  5  6  1  0  0  0  0
  6 13  1  0  0  0  0
  6 14  1  0  0  0  0
  7  9  1  0  0  0  0
  7  6  1  0  0  0  0
  7 23  1  1  0  0  0
  8  7  1  0  0  0  0
  9 10  1  0  0  0  0
  9 26  1  0  0  0  0
 10 11  1  0  0  0  0
 10 29  1  0  0  0  0
 11 12  1  0  0  0  0
 11 30  1  0  0  0  0
 12 34  1  0  0  0  0
 12 33  1  0  0  0  0
 13 35  1  0  0  0  0
 14 36  1  0  0  0  0
 16  1  1  0  0  0  0
 17  2  1  0  0  0  0
 19  3  1  0  0  0  0
 21  5  1  0  0  0  0
 22  5  1  0  0  0  0
 24  8  1  0  0  0  0
 25  8  1  0  0  0  0
 27  9  1  0  0  0  0
 28 10  1  0  0  0  0
 31 11  1  0  0  0  0
 32 12  1  0  0  0  0
M  END
