omegapdb_2byh_14.log
 OpenBabel10161801213D
Gaussian 16 # PM6 Opt
 40 42  0  0  0  0  0  0  0  0999 V2000
   -7.4032   -0.4620    0.9743 O   0  0  0  0  0  0  0  0  0  0  0  0
   -6.5034   -1.0552    0.4123 C   0  0  0  0  0  0  0  0  0  0  0  0
   -6.7195   -2.4355   -0.1414 C   0  0  0  0  0  0  0  0  0  0  0  0
   -5.1572   -0.4363    0.2522 C   0  0  0  0  0  0  0  0  0  0  0  0
   -4.0857   -1.0837   -0.3800 C   0  0  0  0  0  0  0  0  0  0  0  0
   -2.8459   -0.4605   -0.5032 C   0  0  0  0  0  0  0  0  0  0  0  0
   -2.6669    0.8357    0.0128 C   0  0  0  0  0  0  0  0  0  0  0  0
   -3.7376    1.5006    0.6533 C   0  0  0  0  0  0  0  0  0  0  0  0
   -4.9668    0.8603    0.7661 C   0  0  0  0  0  0  0  0  0  0  0  0
   -1.4275    1.5363   -0.0813 N   0  0  0  0  0  0  0  0  0  0  0  0
   -0.2342    1.0501   -0.6698 C   0  0  0  0  0  0  0  0  0  0  0  0
   -0.1446   -0.0680   -1.1399 O   0  0  0  0  0  0  0  0  0  0  0  0
    0.8669    2.0241   -0.6531 C   0  0  0  0  0  0  0  0  0  0  0  0
    0.8173    3.4104   -1.0301 C   0  0  0  0  0  0  0  0  0  0  0  0
    2.0565    3.9541   -0.9612 N   0  0  0  0  0  0  0  0  0  0  0  0
    2.8964    2.9567   -0.5507 N   0  0  0  0  0  0  0  0  0  0  0  0
    2.2121    1.7494   -0.3503 C   0  0  0  0  0  0  0  0  0  0  0  0
    2.8747    0.5336    0.0790 C   0  0  0  0  0  0  0  0  0  0  0  0
    2.7114   -0.6406   -0.6924 C   0  0  0  0  0  0  0  0  0  0  0  0
    3.3840   -1.8038   -0.3494 C   0  0  0  0  0  0  0  0  0  0  0  0
    3.2151   -3.2223   -1.2808 Cl  0  0  0  0  0  0  0  0  0  0  0  0
    4.2229   -1.8277    0.7942 C   0  0  0  0  0  0  0  0  0  0  0  0
    4.8471   -3.0080    1.0396 O   0  0  0  0  0  0  0  0  0  0  0  0
    4.3722   -0.6984    1.6031 C   0  0  0  0  0  0  0  0  0  0  0  0
    3.6769    0.4645    1.2394 C   0  0  0  0  0  0  0  0  0  0  0  0
    3.8605    1.5168    2.0924 O   0  0  0  0  0  0  0  0  0  0  0  0
   -7.7533   -2.7686    0.0416 H   0  0  0  0  0  0  0  0  0  0  0  0
   -6.5561   -2.4727   -1.2258 H   0  0  0  0  0  0  0  0  0  0  0  0
   -6.0557   -3.1735    0.3265 H   0  0  0  0  0  0  0  0  0  0  0  0
   -4.2095   -2.0897   -0.7853 H   0  0  0  0  0  0  0  0  0  0  0  0
   -2.0168   -0.9797   -0.9975 H   0  0  0  0  0  0  0  0  0  0  0  0
   -3.6131    2.5018    1.0577 H   0  0  0  0  0  0  0  0  0  0  0  0
   -5.8074    1.3616    1.2600 H   0  0  0  0  0  0  0  0  0  0  0  0
   -1.4103    2.4702    0.3388 H   0  0  0  0  0  0  0  0  0  0  0  0
   -0.0501    3.9711   -1.3458 H   0  0  0  0  0  0  0  0  0  0  0  0
    3.8942    3.1233   -0.4847 H   0  0  0  0  0  0  0  0  0  0  0  0
    2.0328   -0.6248   -1.5601 H   0  0  0  0  0  0  0  0  0  0  0  0
    5.4147   -2.9754    1.8582 H   0  0  0  0  0  0  0  0  0  0  0  0
    4.9883   -0.6964    2.4984 H   0  0  0  0  0  0  0  0  0  0  0  0
    3.2040    2.2491    1.9577 H   0  0  0  0  0  0  0  0  0  0  0  0
  2  1  2  0  0  0  0
  3 27  1  0  0  0  0
  3 29  1  0  0  0  0
  3  2  1  0  0  0  0
  4  2  1  0  0  0  0
  4  9  2  0  0  0  0
  5  4  1  0  0  0  0
  6  5  2  0  0  0  0
  6  7  1  0  0  0  0
  7  8  2  0  0  0  0
  8  9  1  0  0  0  0
  8 32  1  0  0  0  0
  9 33  1  0  0  0  0
 10  7  1  0  0  0  0
 10 34  1  0  0  0  0
 11 13  1  0  0  0  0
 11 10  1  0  0  0  0
 12 11  2  0  0  0  0
 13 17  2  0  0  0  0
 14 15  2  0  0  0  0
 14 13  1  0  0  0  0
 15 16  1  0  0  0  0
 16 36  1  0  0  0  0
 16 17  1  0  0  0  0
 17 18  1  0  0  0  0
 18 25  2  0  0  0  0
 19 20  2  0  0  0  0
 19 18  1  0  0  0  0
 20 22  1  0  0  0  0
 21 20  1  0  0  0  0
 22 23  1  0  0  0  0
 22 24  2  0  0  0  0
 23 38  1  0  0  0  0
 24 39  1  0  0  0  0
 25 24  1  0  0  0  0
 25 26  1  0  0  0  0
 28  3  1  0  0  0  0
 30  5  1  0  0  0  0
 31  6  1  0  0  0  0
 35 14  1  0  0  0  0
 37 19  1  0  0  0  0
 40 26  1  0  0  0  0
M  END
