omegapdb_1v2k_10.log
 OpenBabel10161801213D
Gaussian 16 # PM6 Opt
 61 65  0  0  0  0  0  0  0  0999 V2000
   -4.3921    4.4737    1.0792 N   0  0  0  0  0  0  0  0  0  0  0  0
   -5.0603    3.5889    1.8687 C   0  0  0  0  0  0  0  0  0  0  0  0
   -5.6775    2.4359    1.3778 C   0  0  0  0  0  0  0  0  0  0  0  0
   -5.6287    2.1619   -0.0104 C   0  0  0  0  0  0  0  0  0  0  0  0
   -4.9334    3.0799   -0.8349 C   0  0  0  0  0  0  0  0  0  0  0  0
   -4.3475    4.2080   -0.2545 C   0  0  0  0  0  0  0  0  0  0  0  0
   -6.3535    1.0802   -0.5731 N   0  0  0  0  0  0  0  0  0  0  0  0
   -6.7255   -0.0642    0.3151 C   0  0  0  0  0  0  0  0  0  0  0  0
   -5.7537   -1.2566    0.2237 C   0  0  0  0  0  0  0  0  0  0  0  0
   -4.4233   -0.8612   -0.4367 C   0  0  0  0  0  0  0  0  0  0  0  0
   -4.6448   -0.2832   -1.8474 C   0  0  0  0  0  0  0  0  0  0  0  0
   -5.9199    0.5821   -1.9104 C   0  0  0  0  0  0  0  0  0  0  0  0
   -3.5288   -2.0988   -0.5430 C   0  0  0  0  0  0  0  0  0  0  0  0
   -3.9651   -3.2200   -0.7659 O   0  0  0  0  0  0  0  0  0  0  0  0
   -2.1540   -1.9256   -0.3797 N   0  0  0  0  0  0  0  0  0  0  0  0
   -1.4821   -0.6178   -0.1805 C   0  0  0  0  0  0  0  0  0  0  0  0
   -0.1930   -0.7861    0.6451 C   0  0  0  0  0  0  0  0  0  0  0  0
    0.7837   -1.6948   -0.0278 N   0  0  0  0  0  0  0  0  0  0  0  0
    0.1449   -2.6943   -0.9294 C   0  0  0  0  0  0  0  0  0  0  0  0
   -1.2591   -3.1145   -0.4664 C   0  0  0  0  0  0  0  0  0  0  0  0
    2.0318   -2.2980    1.0197 S   0  0  0  0  0  0  0  0  0  0  0  0
    1.5343   -2.2482    2.3809 O   0  0  0  0  0  0  0  0  0  0  0  0
    2.4705   -3.5550    0.4436 O   0  0  0  0  0  0  0  0  0  0  0  0
    3.2779   -1.1103    0.8340 C   0  0  0  0  0  0  0  0  0  0  0  0
    4.1035   -1.1276   -0.2636 C   0  0  0  0  0  0  0  0  0  0  0  0
    5.1285   -0.1427   -0.4110 C   0  0  0  0  0  0  0  0  0  0  0  0
    5.2823    0.8506    0.5947 C   0  0  0  0  0  0  0  0  0  0  0  0
    4.4139    0.8351    1.7318 C   0  0  0  0  0  0  0  0  0  0  0  0
    3.4388   -0.1235    1.8474 C   0  0  0  0  0  0  0  0  0  0  0  0
    6.3051    1.8410    0.4481 C   0  0  0  0  0  0  0  0  0  0  0  0
    7.1129    1.8041   -0.6591 C   0  0  0  0  0  0  0  0  0  0  0  0
    6.9778    0.8154   -1.6759 C   0  0  0  0  0  0  0  0  0  0  0  0
    6.0011   -0.1386   -1.5477 C   0  0  0  0  0  0  0  0  0  0  0  0
    8.3501    2.9889   -0.8544 Cl  0  0  0  0  0  0  0  0  0  0  0  0
   -5.0876    3.8304    2.9383 H   0  0  0  0  0  0  0  0  0  0  0  0
   -6.2020    1.7675    2.0574 H   0  0  0  0  0  0  0  0  0  0  0  0
   -4.8701    2.9287   -1.9085 H   0  0  0  0  0  0  0  0  0  0  0  0
   -3.8107    4.9414   -0.8684 H   0  0  0  0  0  0  0  0  0  0  0  0
   -6.8182    0.2823    1.3691 H   0  0  0  0  0  0  0  0  0  0  0  0
   -7.7477   -0.3836    0.0061 H   0  0  0  0  0  0  0  0  0  0  0  0
   -6.2127   -2.0877   -0.3546 H   0  0  0  0  0  0  0  0  0  0  0  0
   -5.5673   -1.6758    1.2307 H   0  0  0  0  0  0  0  0  0  0  0  0
   -3.9340   -0.0803    0.2044 H   0  0  0  0  0  0  0  0  0  0  0  0
   -3.7613    0.3093   -2.1477 H   0  0  0  0  0  0  0  0  0  0  0  0
   -4.7298   -1.1051   -2.5879 H   0  0  0  0  0  0  0  0  0  0  0  0
   -6.7658   -0.0132   -2.3254 H   0  0  0  0  0  0  0  0  0  0  0  0
   -5.7776    1.4419   -2.6013 H   0  0  0  0  0  0  0  0  0  0  0  0
   -1.2439   -0.1689   -1.1733 H   0  0  0  0  0  0  0  0  0  0  0  0
   -2.1714    0.0869    0.3447 H   0  0  0  0  0  0  0  0  0  0  0  0
   -0.4526   -1.1470    1.6723 H   0  0  0  0  0  0  0  0  0  0  0  0
    0.3003    0.2074    0.7566 H   0  0  0  0  0  0  0  0  0  0  0  0
    0.0923   -2.2299   -1.9428 H   0  0  0  0  0  0  0  0  0  0  0  0
    0.7922   -3.6002   -1.0356 H   0  0  0  0  0  0  0  0  0  0  0  0
   -1.7045   -3.8583   -1.1709 H   0  0  0  0  0  0  0  0  0  0  0  0
   -1.2220   -3.6124    0.5301 H   0  0  0  0  0  0  0  0  0  0  0  0
    3.9989   -1.8956   -1.0389 H   0  0  0  0  0  0  0  0  0  0  0  0
    4.5460    1.5938    2.5034 H   0  0  0  0  0  0  0  0  0  0  0  0
    2.7814   -0.1511    2.7251 H   0  0  0  0  0  0  0  0  0  0  0  0
    6.4254    2.6047    1.2170 H   0  0  0  0  0  0  0  0  0  0  0  0
    7.6513    0.8339   -2.5335 H   0  0  0  0  0  0  0  0  0  0  0  0
    5.8742   -0.9105   -2.3089 H   0  0  0  0  0  0  0  0  0  0  0  0
  1  2  2  0  0  0  0
  2 35  1  0  0  0  0
  3  2  1  0  0  0  0
  3 36  1  0  0  0  0
  4  3  2  0  0  0  0
  5  6  2  0  0  0  0
  5  4  1  0  0  0  0
  6  1  1  0  0  0  0
  7  4  1  0  0  0  0
  7  8  1  0  0  0  0
  8 39  1  0  0  0  0
  9  8  1  0  0  0  0
  9 42  1  0  0  0  0
 10 43  1  0  0  0  0
 10  9  1  0  0  0  0
 11 10  1  0  0  0  0
 12 11  1  0  0  0  0
 12  7  1  0  0  0  0
 13 10  1  0  0  0  0
 13 15  1  0  0  0  0
 14 13  2  0  0  0  0
 15 16  1  0  0  0  0
 16 49  1  0  0  0  0
 16 17  1  0  0  0  0
 17 51  1  0  0  0  0
 17 50  1  0  0  0  0
 18 17  1  0  0  0  0
 18 21  1  0  0  0  0
 19 20  1  0  0  0  0
 19 18  1  0  0  0  0
 20 15  1  0  0  0  0
 20 55  1  0  0  0  0
 21 22  2  0  0  0  0
 23 21  2  0  0  0  0
 24 21  1  0  0  0  0
 24 29  2  0  0  0  0
 25 24  1  0  0  0  0
 26 25  2  0  0  0  0
 26 27  1  0  0  0  0
 27 28  2  0  0  0  0
 28 29  1  0  0  0  0
 28 57  1  0  0  0  0
 29 58  1  0  0  0  0
 30 27  1  0  0  0  0
 30 59  1  0  0  0  0
 31 30  2  0  0  0  0
 32 33  2  0  0  0  0
 32 31  1  0  0  0  0
 33 26  1  0  0  0  0
 34 31  1  0  0  0  0
 37  5  1  0  0  0  0
 38  6  1  0  0  0  0
 40  8  1  0  0  0  0
 41  9  1  0  0  0  0
 44 11  1  0  0  0  0
 45 11  1  0  0  0  0
 46 12  1  0  0  0  0
 47 12  1  0  0  0  0
 48 16  1  0  0  0  0
 52 19  1  0  0  0  0
 53 19  1  0  0  0  0
 54 20  1  0  0  0  0
 56 25  1  0  0  0  0
 60 32  1  0  0  0  0
 61 33  1  0  0  0  0
M  END
