omegapdb_1z1r_27.log
 OpenBabel10161801213D
Gaussian 16 # PM6 Opt
 66 68  0  0  1  0  0  0  0  0999 V2000
    0.2733   -2.0742   -0.2571 C   0  0  2  0  0  0  0  0  0  0  0  0
    1.3579   -3.0863    0.1798 C   0  0  0  0  0  0  0  0  0  0  0  0
    2.7248   -2.4960   -0.0181 C   0  0  0  0  0  0  0  0  0  0  0  0
    3.4033   -1.9182    1.0660 C   0  0  0  0  0  0  0  0  0  0  0  0
    4.5918   -1.2137    0.8669 C   0  0  0  0  0  0  0  0  0  0  0  0
    5.0935   -1.1015   -0.4364 C   0  0  0  0  0  0  0  0  0  0  0  0
    4.4756   -1.7409   -1.5248 C   0  0  0  0  0  0  0  0  0  0  0  0
    3.2912   -2.4391   -1.3040 C   0  0  0  0  0  0  0  0  0  0  0  0
    6.2512   -0.4038   -0.7441 O   0  0  0  0  0  0  0  0  0  0  0  0
    6.3884    0.9246   -0.1634 C   0  0  0  0  0  0  0  0  0  0  0  0
    5.3944    1.8903   -0.8048 C   0  0  0  0  0  0  0  0  0  0  0  0
    4.1248    2.0972    0.0282 C   0  0  0  0  0  0  0  0  0  0  0  0
    3.0736    2.8145   -0.7904 C   0  0  0  0  0  0  0  0  0  0  0  0
    3.3198    3.6112   -1.6793 O   0  0  0  0  0  0  0  0  0  0  0  0
    1.7140    2.6032   -0.4836 N   0  0  0  0  0  0  0  0  0  0  0  0
    1.1958    1.6154    0.4694 C   0  0  2  0  0  0  0  0  0  0  0  0
    0.5927    0.4134   -0.3050 C   0  0  0  0  0  0  0  0  0  0  0  0
    0.1597    0.5002   -1.4466 O   0  0  0  0  0  0  0  0  0  0  0  0
    0.5107   -0.7699    0.4174 N   0  0  0  0  0  0  0  0  0  0  0  0
    0.0868    2.2277    1.3428 C   0  0  0  0  0  0  0  0  0  0  0  0
   -0.1418    1.3777    2.5758 C   0  0  0  0  0  0  0  0  0  0  0  0
    0.7070    0.6090    3.0216 O   0  0  0  0  0  0  0  0  0  0  0  0
   -1.3572    1.5488    3.2253 N   0  0  0  0  0  0  0  0  0  0  0  0
   -1.1546   -2.5675    0.1093 C   0  0  2  0  0  0  0  0  0  0  0  0
   -1.0826   -4.0055    0.0636 O   0  0  0  0  0  0  0  0  0  0  0  0
   -2.2249   -2.1578   -0.9359 C   0  0  0  0  0  0  0  0  0  0  0  0
   -2.5303   -0.7136   -0.9732 N   0  0  0  0  0  0  0  0  0  0  0  0
   -3.4042   -0.0538    0.3376 S   0  0  0  0  0  0  0  0  0  0  0  0
   -2.6976    1.1585    0.7600 O   0  0  0  0  0  0  0  0  0  0  0  0
   -3.5883   -1.0954    1.3366 O   0  0  0  0  0  0  0  0  0  0  0  0
   -4.9247    0.3808   -0.3429 C   0  0  0  0  0  0  0  0  0  0  0  0
   -6.0563   -0.3929   -0.0597 C   0  0  0  0  0  0  0  0  0  0  0  0
   -7.2930   -0.0472   -0.6102 C   0  0  0  0  0  0  0  0  0  0  0  0
   -7.3964    1.0721   -1.4444 C   0  0  0  0  0  0  0  0  0  0  0  0
   -6.2662    1.8475   -1.7253 C   0  0  0  0  0  0  0  0  0  0  0  0
   -5.0290    1.5017   -1.1735 C   0  0  0  0  0  0  0  0  0  0  0  0
    0.3432   -1.9215   -1.3707 H   0  0  0  0  0  0  0  0  0  0  0  0
    1.2247   -4.0234   -0.4054 H   0  0  0  0  0  0  0  0  0  0  0  0
    1.1971   -3.4019    1.2302 H   0  0  0  0  0  0  0  0  0  0  0  0
    2.9983   -2.0052    2.0749 H   0  0  0  0  0  0  0  0  0  0  0  0
    5.1189   -0.7675    1.7054 H   0  0  0  0  0  0  0  0  0  0  0  0
    4.9196   -1.6672   -2.5154 H   0  0  0  0  0  0  0  0  0  0  0  0
    2.7883   -2.9237   -2.1409 H   0  0  0  0  0  0  0  0  0  0  0  0
    7.4342    1.1530   -0.4495 H   0  0  0  0  0  0  0  0  0  0  0  0
    6.3082    0.8652    0.9329 H   0  0  0  0  0  0  0  0  0  0  0  0
    5.1260    1.5086   -1.8169 H   0  0  0  0  0  0  0  0  0  0  0  0
    5.8750    2.8725   -0.9972 H   0  0  0  0  0  0  0  0  0  0  0  0
    4.3493    2.7025    0.9322 H   0  0  0  0  0  0  0  0  0  0  0  0
    3.7508    1.1194    0.4031 H   0  0  0  0  0  0  0  0  0  0  0  0
    1.0270    2.9900   -1.1407 H   0  0  0  0  0  0  0  0  0  0  0  0
    2.0312    1.2517    1.1397 H   0  0  0  0  0  0  0  0  0  0  0  0
    0.8484   -0.8121    1.3903 H   0  0  0  0  0  0  0  0  0  0  0  0
   -0.8608    2.3452    0.7585 H   0  0  0  0  0  0  0  0  0  0  0  0
    0.3650    3.2591    1.6525 H   0  0  0  0  0  0  0  0  0  0  0  0
   -2.1615    1.9021    2.7082 H   0  0  0  0  0  0  0  0  0  0  0  0
   -1.5850    0.9250    3.9892 H   0  0  0  0  0  0  0  0  0  0  0  0
   -1.4516   -2.2505    1.1362 H   0  0  0  0  0  0  0  0  0  0  0  0
   -1.7879   -4.3941    0.6205 H   0  0  0  0  0  0  0  0  0  0  0  0
   -1.8911   -2.4713   -1.9544 H   0  0  0  0  0  0  0  0  0  0  0  0
   -3.1572   -2.7353   -0.7370 H   0  0  0  0  0  0  0  0  0  0  0  0
   -1.7332   -0.1617   -1.3658 H   0  0  0  0  0  0  0  0  0  0  0  0
   -5.9758   -1.2654    0.5992 H   0  0  0  0  0  0  0  0  0  0  0  0
   -8.1749   -0.6478   -0.3900 H   0  0  0  0  0  0  0  0  0  0  0  0
   -8.3619    1.3414   -1.8762 H   0  0  0  0  0  0  0  0  0  0  0  0
   -6.3486    2.7197   -2.3734 H   0  0  0  0  0  0  0  0  0  0  0  0
   -4.1491    2.1150   -1.3910 H   0  0  0  0  0  0  0  0  0  0  0  0
  1 37  1  6  0  0  0
  1 24  1  0  0  0  0
  1  2  1  0  0  0  0
  1 19  1  0  0  0  0
  2 39  1  0  0  0  0
  3  2  1  0  0  0  0
  3  4  2  0  0  0  0
  4 40  1  0  0  0  0
  5  4  1  0  0  0  0
  5 41  1  0  0  0  0
  6  5  2  0  0  0  0
  7  8  2  0  0  0  0
  7  6  1  0  0  0  0
  8  3  1  0  0  0  0
  9  6  1  0  0  0  0
  9 10  1  0  0  0  0
 10 45  1  0  0  0  0
 11 10  1  0  0  0  0
 11 12  1  0  0  0  0
 12 49  1  0  0  0  0
 12 48  1  0  0  0  0
 13 15  1  0  0  0  0
 13 12  1  0  0  0  0
 14 13  2  0  0  0  0
 15 16  1  0  0  0  0
 16 51  1  1  0  0  0
 16 20  1  0  0  0  0
 17 19  1  0  0  0  0
 17 16  1  0  0  0  0
 18 17  2  0  0  0  0
 19 52  1  0  0  0  0
 20 54  1  0  0  0  0
 20 21  1  0  0  0  0
 21 22  2  0  0  0  0
 21 23  1  0  0  0  0
 23 56  1  0  0  0  0
 24 57  1  1  0  0  0
 25 24  1  0  0  0  0
 25 58  1  0  0  0  0
 26 60  1  0  0  0  0
 26 24  1  0  0  0  0
 27 26  1  0  0  0  0
 27 28  1  0  0  0  0
 28 29  2  0  0  0  0
 28 30  2  0  0  0  0
 31 32  1  0  0  0  0
 31 28  1  0  0  0  0
 32 62  1  0  0  0  0
 33 63  1  0  0  0  0
 33 32  2  0  0  0  0
 34 33  1  0  0  0  0
 35 34  2  0  0  0  0
 35 36  1  0  0  0  0
 36 31  2  0  0  0  0
 38  2  1  0  0  0  0
 42  7  1  0  0  0  0
 43  8  1  0  0  0  0
 44 10  1  0  0  0  0
 46 11  1  0  0  0  0
 47 11  1  0  0  0  0
 50 15  1  0  0  0  0
 53 20  1  0  0  0  0
 55 23  1  0  0  0  0
 59 26  1  0  0  0  0
 61 27  1  0  0  0  0
 64 34  1  0  0  0  0
 65 35  1  0  0  0  0
 66 36  1  0  0  0  0
M  END
