omegapdb_2byh_08.log
 OpenBabel10161801213D
Gaussian 16 # PM6 Opt
 40 42  0  0  0  0  0  0  0  0999 V2000
    6.1450    1.2795   -1.3352 O   0  0  0  0  0  0  0  0  0  0  0  0
    5.8165    0.4703   -0.4893 C   0  0  0  0  0  0  0  0  0  0  0  0
    6.8193   -0.0567    0.4992 C   0  0  0  0  0  0  0  0  0  0  0  0
    4.4155   -0.0260   -0.4014 C   0  0  0  0  0  0  0  0  0  0  0  0
    3.4817    0.4782   -1.3266 C   0  0  0  0  0  0  0  0  0  0  0  0
    2.1560    0.0607   -1.3044 C   0  0  0  0  0  0  0  0  0  0  0  0
    1.7424   -0.8841   -0.3365 C   0  0  0  0  0  0  0  0  0  0  0  0
    2.6685   -1.3955    0.5918 C   0  0  0  0  0  0  0  0  0  0  0  0
    3.9917   -0.9639    0.5519 C   0  0  0  0  0  0  0  0  0  0  0  0
    0.3723   -1.2724   -0.3477 N   0  0  0  0  0  0  0  0  0  0  0  0
   -0.2444   -2.2172    0.5187 C   0  0  0  0  0  0  0  0  0  0  0  0
    0.3813   -2.8162    1.3693 O   0  0  0  0  0  0  0  0  0  0  0  0
   -1.6779   -2.3947    0.2594 C   0  0  0  0  0  0  0  0  0  0  0  0
   -2.3197   -3.6807    0.2326 C   0  0  0  0  0  0  0  0  0  0  0  0
   -3.6400   -3.5339   -0.0408 N   0  0  0  0  0  0  0  0  0  0  0  0
   -3.8629   -2.1930   -0.1624 N   0  0  0  0  0  0  0  0  0  0  0  0
   -2.6931   -1.4492    0.0106 C   0  0  0  0  0  0  0  0  0  0  0  0
   -2.6658    0.0032   -0.0308 C   0  0  0  0  0  0  0  0  0  0  0  0
   -1.8089    0.7189    0.8327 C   0  0  0  0  0  0  0  0  0  0  0  0
   -1.7531    2.1055    0.7883 C   0  0  0  0  0  0  0  0  0  0  0  0
   -0.7137    2.9730    1.8225 Cl  0  0  0  0  0  0  0  0  0  0  0  0
   -2.5687    2.8189   -0.1249 C   0  0  0  0  0  0  0  0  0  0  0  0
   -2.4350    4.1683   -0.0974 O   0  0  0  0  0  0  0  0  0  0  0  0
   -3.4485    2.1473   -0.9816 C   0  0  0  0  0  0  0  0  0  0  0  0
   -3.4892    0.7478   -0.9060 C   0  0  0  0  0  0  0  0  0  0  0  0
   -4.3544    0.0204   -1.6787 O   0  0  0  0  0  0  0  0  0  0  0  0
    7.8087    0.3941    0.3244 H   0  0  0  0  0  0  0  0  0  0  0  0
    6.9411   -1.1440    0.4181 H   0  0  0  0  0  0  0  0  0  0  0  0
    6.5363    0.1762    1.5333 H   0  0  0  0  0  0  0  0  0  0  0  0
    3.8179    1.2101   -2.0700 H   0  0  0  0  0  0  0  0  0  0  0  0
    1.4521    0.4626   -2.0282 H   0  0  0  0  0  0  0  0  0  0  0  0
    2.3522   -2.1317    1.3397 H   0  0  0  0  0  0  0  0  0  0  0  0
    4.6980   -1.3700    1.2784 H   0  0  0  0  0  0  0  0  0  0  0  0
   -0.2073   -0.8491   -1.0801 H   0  0  0  0  0  0  0  0  0  0  0  0
   -1.8494   -4.6395    0.4025 H   0  0  0  0  0  0  0  0  0  0  0  0
   -4.7797   -1.8390   -0.4126 H   0  0  0  0  0  0  0  0  0  0  0  0
   -1.1806    0.1723    1.5480 H   0  0  0  0  0  0  0  0  0  0  0  0
   -3.0252    4.6273   -0.7555 H   0  0  0  0  0  0  0  0  0  0  0  0
   -4.0812    2.6897   -1.6741 H   0  0  0  0  0  0  0  0  0  0  0  0
   -4.8648    0.5838   -2.3180 H   0  0  0  0  0  0  0  0  0  0  0  0
  1  2  2  0  0  0  0
  2  4  1  0  0  0  0
  2  3  1  0  0  0  0
  3 29  1  0  0  0  0
  4  9  2  0  0  0  0
  5  6  2  0  0  0  0
  5  4  1  0  0  0  0
  6  7  1  0  0  0  0
  7  8  2  0  0  0  0
  8 32  1  0  0  0  0
  9  8  1  0  0  0  0
  9 33  1  0  0  0  0
 10  7  1  0  0  0  0
 10 11  1  0  0  0  0
 11 12  2  0  0  0  0
 13 11  1  0  0  0  0
 14 13  1  0  0  0  0
 14 35  1  0  0  0  0
 15 14  2  0  0  0  0
 16 15  1  0  0  0  0
 16 17  1  0  0  0  0
 17 13  2  0  0  0  0
 18 17  1  0  0  0  0
 18 19  2  0  0  0  0
 19 37  1  0  0  0  0
 20 19  1  0  0  0  0
 20 21  1  0  0  0  0
 22 23  1  0  0  0  0
 22 20  2  0  0  0  0
 24 25  2  0  0  0  0
 24 22  1  0  0  0  0
 25 18  1  0  0  0  0
 26 25  1  0  0  0  0
 27  3  1  0  0  0  0
 28  3  1  0  0  0  0
 30  5  1  0  0  0  0
 31  6  1  0  0  0  0
 34 10  1  0  0  0  0
 36 16  1  0  0  0  0
 38 23  1  0  0  0  0
 39 24  1  0  0  0  0
 40 26  1  0  0  0  0
M  END
