omegapdb_2byh_19.log
 OpenBabel10161801213D
Gaussian 16 # PM6 Opt
 40 42  0  0  0  0  0  0  0  0999 V2000
    5.9690    1.8660    1.5045 O   0  0  0  0  0  0  0  0  0  0  0  0
    6.0442    0.7383    1.0591 C   0  0  0  0  0  0  0  0  0  0  0  0
    7.3778    0.0683    0.8790 C   0  0  0  0  0  0  0  0  0  0  0  0
    4.8201   -0.0191    0.6711 C   0  0  0  0  0  0  0  0  0  0  0  0
    3.5848    0.6515    0.7390 C   0  0  0  0  0  0  0  0  0  0  0  0
    2.3994    0.0085    0.3949 C   0  0  0  0  0  0  0  0  0  0  0  0
    2.4399   -1.3312   -0.0350 C   0  0  0  0  0  0  0  0  0  0  0  0
    3.6732   -2.0187   -0.0947 C   0  0  0  0  0  0  0  0  0  0  0  0
    4.8479   -1.3586    0.2557 C   0  0  0  0  0  0  0  0  0  0  0  0
    1.2642   -2.0567   -0.3756 N   0  0  0  0  0  0  0  0  0  0  0  0
    0.0142   -1.5697   -0.8455 C   0  0  0  0  0  0  0  0  0  0  0  0
   -0.9002   -2.3819   -0.8259 O   0  0  0  0  0  0  0  0  0  0  0  0
   -0.0834   -0.2136   -1.3685 C   0  0  0  0  0  0  0  0  0  0  0  0
    0.8636    0.4172   -2.2511 C   0  0  0  0  0  0  0  0  0  0  0  0
    0.4332    1.6561   -2.5863 N   0  0  0  0  0  0  0  0  0  0  0  0
   -0.7636    1.8338   -1.9520 N   0  0  0  0  0  0  0  0  0  0  0  0
   -1.1314    0.7166   -1.1960 C   0  0  0  0  0  0  0  0  0  0  0  0
   -2.3661    0.6696   -0.4315 C   0  0  0  0  0  0  0  0  0  0  0  0
   -3.0781   -0.5406   -0.2904 C   0  0  0  0  0  0  0  0  0  0  0  0
   -4.2454   -0.5930    0.4616 C   0  0  0  0  0  0  0  0  0  0  0  0
   -5.1095   -2.0530    0.6333 Cl  0  0  0  0  0  0  0  0  0  0  0  0
   -4.7324    0.5716    1.1000 C   0  0  0  0  0  0  0  0  0  0  0  0
   -5.8723    0.4161    1.8212 O   0  0  0  0  0  0  0  0  0  0  0  0
   -4.0651    1.7965    0.9720 C   0  0  0  0  0  0  0  0  0  0  0  0
   -2.8987    1.8200    0.1965 C   0  0  0  0  0  0  0  0  0  0  0  0
   -2.2149    2.9900   -0.0128 O   0  0  0  0  0  0  0  0  0  0  0  0
    7.5496   -0.2331   -0.1617 H   0  0  0  0  0  0  0  0  0  0  0  0
    8.1946    0.7533    1.1572 H   0  0  0  0  0  0  0  0  0  0  0  0
    7.4773   -0.8219    1.5123 H   0  0  0  0  0  0  0  0  0  0  0  0
    3.5674    1.6950    1.0759 H   0  0  0  0  0  0  0  0  0  0  0  0
    1.4515    0.5407    0.4719 H   0  0  0  0  0  0  0  0  0  0  0  0
    3.7115   -3.0561   -0.4199 H   0  0  0  0  0  0  0  0  0  0  0  0
    5.7939   -1.9000    0.2021 H   0  0  0  0  0  0  0  0  0  0  0  0
    1.2937   -3.0736   -0.2145 H   0  0  0  0  0  0  0  0  0  0  0  0
    1.7897   -0.0045   -2.6140 H   0  0  0  0  0  0  0  0  0  0  0  0
   -1.2514    2.7224   -2.0074 H   0  0  0  0  0  0  0  0  0  0  0  0
   -2.6986   -1.4584   -0.7798 H   0  0  0  0  0  0  0  0  0  0  0  0
   -6.1707    1.2614    2.2528 H   0  0  0  0  0  0  0  0  0  0  0  0
   -4.4385    2.6923    1.4523 H   0  0  0  0  0  0  0  0  0  0  0  0
   -2.5836    3.7483    0.5105 H   0  0  0  0  0  0  0  0  0  0  0  0
  2  1  2  0  0  0  0
  3  2  1  0  0  0  0
  3 28  1  0  0  0  0
  3 29  1  0  0  0  0
  4  5  1  0  0  0  0
  4  2  1  0  0  0  0
  5 30  1  0  0  0  0
  6 31  1  0  0  0  0
  6  5  2  0  0  0  0
  7  6  1  0  0  0  0
  8  7  2  0  0  0  0
  8  9  1  0  0  0  0
  9  4  2  0  0  0  0
 10 34  1  0  0  0  0
 10  7  1  0  0  0  0
 11 12  2  0  0  0  0
 11 10  1  0  0  0  0
 13 17  2  0  0  0  0
 13 11  1  0  0  0  0
 14 13  1  0  0  0  0
 15 14  2  0  0  0  0
 15 16  1  0  0  0  0
 16 17  1  0  0  0  0
 17 18  1  0  0  0  0
 18 19  2  0  0  0  0
 18 25  1  0  0  0  0
 19 20  1  0  0  0  0
 20 21  1  0  0  0  0
 20 22  2  0  0  0  0
 22 23  1  0  0  0  0
 23 38  1  0  0  0  0
 24 22  1  0  0  0  0
 24 39  1  0  0  0  0
 25 24  2  0  0  0  0
 26 25  1  0  0  0  0
 26 40  1  0  0  0  0
 27  3  1  0  0  0  0
 32  8  1  0  0  0  0
 33  9  1  0  0  0  0
 35 14  1  0  0  0  0
 36 16  1  0  0  0  0
 37 19  1  0  0  0  0
M  END
