omegapdb_2f7p_06.log
 OpenBabel10161801213D
Gaussian 16 # PM6 Opt
 34 35  0  0  1  0  0  0  0  0999 V2000
   -0.6169   -0.4436   -0.0838 C   0  0  1  0  0  0  0  0  0  0  0  0
    0.0741   -1.0190    1.0927 N   0  0  0  0  0  0  0  0  0  0  0  0
    1.2696   -1.8434    0.7321 C   0  0  0  0  0  0  0  0  0  0  0  0
    2.3925   -0.9417    0.2741 C   0  0  0  0  0  0  0  0  0  0  0  0
    2.9332   -1.0799   -1.0117 C   0  0  0  0  0  0  0  0  0  0  0  0
    3.9762   -0.2445   -1.4239 C   0  0  0  0  0  0  0  0  0  0  0  0
    4.4803    0.7317   -0.5594 C   0  0  0  0  0  0  0  0  0  0  0  0
    3.9405    0.8710    0.7240 C   0  0  0  0  0  0  0  0  0  0  0  0
    2.9007    0.0376    1.1419 C   0  0  0  0  0  0  0  0  0  0  0  0
   -1.8086   -1.3055   -0.6294 C   0  0  1  0  0  0  0  0  0  0  0  0
   -2.1663   -2.2779    0.3428 O   0  0  0  0  0  0  0  0  0  0  0  0
   -2.9818   -0.3227   -0.9249 C   0  0  1  0  0  0  0  0  0  0  0  0
   -4.0777   -0.7391   -0.1088 O   0  0  0  0  0  0  0  0  0  0  0  0
   -2.4763    1.1029   -0.5573 C   0  0  1  0  0  0  0  0  0  0  0  0
   -3.5636    1.7009    0.1626 O   0  0  0  0  0  0  0  0  0  0  0  0
   -1.2464    0.9023    0.3356 C   0  0  2  0  0  0  0  0  0  0  0  0
   -0.0906    2.2740    0.0767 S   0  0  0  0  0  0  0  0  0  0  0  0
    0.1087   -0.2857   -0.9249 H   0  0  0  0  0  0  0  0  0  0  0  0
   -0.5925   -1.6036    1.6282 H   0  0  0  0  0  0  0  0  0  0  0  0
    1.0467   -2.6272   -0.0255 H   0  0  0  0  0  0  0  0  0  0  0  0
    1.5892   -2.3898    1.6517 H   0  0  0  0  0  0  0  0  0  0  0  0
    2.5481   -1.8368   -1.6916 H   0  0  0  0  0  0  0  0  0  0  0  0
    4.3956   -0.3551   -2.4228 H   0  0  0  0  0  0  0  0  0  0  0  0
    5.2911    1.3811   -0.8831 H   0  0  0  0  0  0  0  0  0  0  0  0
    4.3347    1.6285    1.3998 H   0  0  0  0  0  0  0  0  0  0  0  0
    2.4776    0.1409    2.1414 H   0  0  0  0  0  0  0  0  0  0  0  0
   -1.5112   -1.8925   -1.5220 H   0  0  0  0  0  0  0  0  0  0  0  0
   -3.0814   -2.0796    0.7124 H   0  0  0  0  0  0  0  0  0  0  0  0
   -3.3485   -0.3920   -1.9689 H   0  0  0  0  0  0  0  0  0  0  0  0
   -4.3655    0.0015    0.4998 H   0  0  0  0  0  0  0  0  0  0  0  0
   -2.2872    1.7209   -1.4621 H   0  0  0  0  0  0  0  0  0  0  0  0
   -3.2603    2.4882    0.6645 H   0  0  0  0  0  0  0  0  0  0  0  0
   -1.5473    0.8731    1.4122 H   0  0  0  0  0  0  0  0  0  0  0  0
    1.0154    1.7190    0.6373 H   0  0  0  0  0  0  0  0  0  0  0  0
  1 18  1  6  0  0  0
  1 16  1  0  0  0  0
  1  2  1  0  0  0  0
  2 19  1  0  0  0  0
  3  2  1  0  0  0  0
  3 21  1  0  0  0  0
  4  3  1  0  0  0  0
  4  9  2  0  0  0  0
  5  4  1  0  0  0  0
  6  5  2  0  0  0  0
  6  7  1  0  0  0  0
  7  8  2  0  0  0  0
  8  9  1  0  0  0  0
  8 25  1  0  0  0  0
  9 26  1  0  0  0  0
 10 27  1  6  0  0  0
 10  1  1  0  0  0  0
 10 11  1  0  0  0  0
 11 28  1  0  0  0  0
 12 29  1  6  0  0  0
 12 10  1  0  0  0  0
 12 14  1  0  0  0  0
 12 13  1  0  0  0  0
 13 30  1  0  0  0  0
 14 31  1  6  0  0  0
 14 15  1  0  0  0  0
 14 16  1  0  0  0  0
 15 32  1  0  0  0  0
 16 33  1  1  0  0  0
 17 16  1  0  0  0  0
 17 34  1  0  0  0  0
 20  3  1  0  0  0  0
 22  5  1  0  0  0  0
 23  6  1  0  0  0  0
 24  7  1  0  0  0  0
M  END
