omegapdb_1gs5_14.log
 OpenBabel10161801213D
Gaussian 16 # PM6 Opt
 24 23  0  0  1  0  0  0  0  0999 V2000
   -0.6009    0.2140    0.1490 C   0  0  2  0  0  0  0  0  0  0  0  0
   -0.4936    1.7140   -0.1452 C   0  0  0  0  0  0  0  0  0  0  0  0
   -0.9664    2.3640   -1.0422 O   0  0  0  0  0  0  0  0  0  0  0  0
    0.2920    2.3156    0.8120 O   0  0  0  0  0  0  0  0  0  0  0  0
    0.6477   -0.5127   -0.3859 C   0  0  0  0  0  0  0  0  0  0  0  0
    1.8613   -0.2633    0.5120 C   0  0  0  0  0  0  0  0  0  0  0  0
    3.1309   -0.7153   -0.1609 C   0  0  0  0  0  0  0  0  0  0  0  0
    3.2812   -1.1023   -1.2891 O   0  0  0  0  0  0  0  0  0  0  0  0
    4.2663   -0.6658    0.6263 O   0  0  0  0  0  0  0  0  0  0  0  0
   -1.8236   -0.2911   -0.4958 N   0  0  0  0  0  0  0  0  0  0  0  0
   -2.8542   -0.8612    0.2786 C   0  0  0  0  0  0  0  0  0  0  0  0
   -2.7121   -0.9882    1.4804 O   0  0  0  0  0  0  0  0  0  0  0  0
   -4.0611   -1.2854   -0.5000 C   0  0  0  0  0  0  0  0  0  0  0  0
   -0.6886    0.0644    1.2709 H   0  0  0  0  0  0  0  0  0  0  0  0
    0.3810    3.2990    0.6760 H   0  0  0  0  0  0  0  0  0  0  0  0
    0.4399   -1.6041   -0.4448 H   0  0  0  0  0  0  0  0  0  0  0  0
    0.8724   -0.2100   -1.4320 H   0  0  0  0  0  0  0  0  0  0  0  0
    1.7282   -0.7816    1.4857 H   0  0  0  0  0  0  0  0  0  0  0  0
    1.9372    0.8230    0.7653 H   0  0  0  0  0  0  0  0  0  0  0  0
    4.1392   -0.3468    1.5451 H   0  0  0  0  0  0  0  0  0  0  0  0
   -1.9241   -0.1167   -1.4929 H   0  0  0  0  0  0  0  0  0  0  0  0
   -3.8271   -2.0338   -1.2698 H   0  0  0  0  0  0  0  0  0  0  0  0
   -4.8035   -1.7432    0.1770 H   0  0  0  0  0  0  0  0  0  0  0  0
   -4.5601   -0.4398   -0.9948 H   0  0  0  0  0  0  0  0  0  0  0  0
  1 14  1  1  0  0  0
  2  1  1  0  0  0  0
  2  4  1  0  0  0  0
  3  2  2  0  0  0  0
  5  1  1  0  0  0  0
  5  6  1  0  0  0  0
  6 19  1  0  0  0  0
  6 18  1  0  0  0  0
  7  6  1  0  0  0  0
  7  9  1  0  0  0  0
  8  7  2  0  0  0  0
  9 20  1  0  0  0  0
 10  1  1  0  0  0  0
 10 11  1  0  0  0  0
 11 12  2  0  0  0  0
 13 23  1  0  0  0  0
 13 11  1  0  0  0  0
 15  4  1  0  0  0  0
 16  5  1  0  0  0  0
 17  5  1  0  0  0  0
 21 10  1  0  0  0  0
 22 13  1  0  0  0  0
 24 13  1  0  0  0  0
M  END
