omegapdb_2f7p_19.log
 OpenBabel10161801213D
Gaussian 16 # PM6 Opt
 34 35  0  0  1  0  0  0  0  0999 V2000
   -0.9905    0.1153   -0.9953 C   0  0  1  0  0  0  0  0  0  0  0  0
    0.4771   -0.0027   -1.0210 N   0  0  0  0  0  0  0  0  0  0  0  0
    1.1038   -0.6073    0.1951 C   0  0  0  0  0  0  0  0  0  0  0  0
    2.5897   -0.3446    0.1868 C   0  0  0  0  0  0  0  0  0  0  0  0
    3.3708   -0.7694   -0.8988 C   0  0  0  0  0  0  0  0  0  0  0  0
    4.7488   -0.5414   -0.9005 C   0  0  0  0  0  0  0  0  0  0  0  0
    5.3551    0.1078    0.1805 C   0  0  0  0  0  0  0  0  0  0  0  0
    4.5781    0.5314    1.2628 C   0  0  0  0  0  0  0  0  0  0  0  0
    3.1976    0.3093    1.2678 C   0  0  0  0  0  0  0  0  0  0  0  0
   -1.7436   -1.2406   -0.8514 C   0  0  1  0  0  0  0  0  0  0  0  0
   -1.3092   -2.0716    0.2270 O   0  0  0  0  0  0  0  0  0  0  0  0
   -3.1981   -0.8067   -0.5089 C   0  0  1  0  0  0  0  0  0  0  0  0
   -3.8733   -1.7901    0.2674 O   0  0  0  0  0  0  0  0  0  0  0  0
   -3.0282    0.4664    0.3820 C   0  0  1  0  0  0  0  0  0  0  0  0
   -3.0011    0.0669    1.7607 O   0  0  0  0  0  0  0  0  0  0  0  0
   -1.6206    1.0167    0.1025 C   0  0  2  0  0  0  0  0  0  0  0  0
   -1.6838    2.7055   -0.5448 S   0  0  0  0  0  0  0  0  0  0  0  0
   -1.2649    0.5186   -2.0167 H   0  0  0  0  0  0  0  0  0  0  0  0
    0.8933    0.9225   -1.2030 H   0  0  0  0  0  0  0  0  0  0  0  0
    0.9173   -1.7122    0.1474 H   0  0  0  0  0  0  0  0  0  0  0  0
    0.6439   -0.2517    1.1439 H   0  0  0  0  0  0  0  0  0  0  0  0
    2.8936   -1.2726   -1.7407 H   0  0  0  0  0  0  0  0  0  0  0  0
    5.3520   -0.8711   -1.7448 H   0  0  0  0  0  0  0  0  0  0  0  0
    6.4290    0.2823    0.1786 H   0  0  0  0  0  0  0  0  0  0  0  0
    5.0479    1.0369    2.1048 H   0  0  0  0  0  0  0  0  0  0  0  0
    2.6015    0.6446    2.1137 H   0  0  0  0  0  0  0  0  0  0  0  0
   -1.6342   -1.8975   -1.7363 H   0  0  0  0  0  0  0  0  0  0  0  0
   -1.3065   -1.5545    1.0777 H   0  0  0  0  0  0  0  0  0  0  0  0
   -3.8387   -0.6313   -1.3942 H   0  0  0  0  0  0  0  0  0  0  0  0
   -3.2279   -2.5043    0.5511 H   0  0  0  0  0  0  0  0  0  0  0  0
   -3.8536    1.1924    0.2482 H   0  0  0  0  0  0  0  0  0  0  0  0
   -3.7378   -0.5855    1.9254 H   0  0  0  0  0  0  0  0  0  0  0  0
   -1.0191    0.9846    1.0442 H   0  0  0  0  0  0  0  0  0  0  0  0
   -2.0040    3.3678    0.5890 H   0  0  0  0  0  0  0  0  0  0  0  0
  1 18  1  6  0  0  0
  1 10  1  0  0  0  0
  1 16  1  0  0  0  0
  2  1  1  0  0  0  0
  2  3  1  0  0  0  0
  3 21  1  0  0  0  0
  4  3  1  0  0  0  0
  4  9  2  0  0  0  0
  5  4  1  0  0  0  0
  6  5  2  0  0  0  0
  6  7  1  0  0  0  0
  7  8  2  0  0  0  0
  8  9  1  0  0  0  0
  8 25  1  0  0  0  0
  9 26  1  0  0  0  0
 10 27  1  6  0  0  0
 10 12  1  0  0  0  0
 10 11  1  0  0  0  0
 11 28  1  0  0  0  0
 12 29  1  6  0  0  0
 12 13  1  0  0  0  0
 12 14  1  0  0  0  0
 13 30  1  0  0  0  0
 14 31  1  6  0  0  0
 14 15  1  0  0  0  0
 15 32  1  0  0  0  0
 16 14  1  0  0  0  0
 16 33  1  1  0  0  0
 17 16  1  0  0  0  0
 17 34  1  0  0  0  0
 19  2  1  0  0  0  0
 20  3  1  0  0  0  0
 22  5  1  0  0  0  0
 23  6  1  0  0  0  0
 24  7  1  0  0  0  0
M  END
