omegapdb_2f7p_20.log
 OpenBabel10161801213D
Gaussian 16 # PM6 Opt
 34 35  0  0  1  0  0  0  0  0999 V2000
   -0.9810    0.5275   -0.8507 C   0  0  1  0  0  0  0  0  0  0  0  0
    0.3295    1.1614   -0.6106 N   0  0  0  0  0  0  0  0  0  0  0  0
    1.0450    0.7742    0.6475 C   0  0  0  0  0  0  0  0  0  0  0  0
    2.4719    0.3704    0.3632 C   0  0  0  0  0  0  0  0  0  0  0  0
    2.7515   -0.9307   -0.0812 C   0  0  0  0  0  0  0  0  0  0  0  0
    4.0681   -1.3110   -0.3482 C   0  0  0  0  0  0  0  0  0  0  0  0
    5.1123   -0.3955   -0.1746 C   0  0  0  0  0  0  0  0  0  0  0  0
    4.8350    0.9025    0.2647 C   0  0  0  0  0  0  0  0  0  0  0  0
    3.5177    1.2881    0.5318 C   0  0  0  0  0  0  0  0  0  0  0  0
   -1.0809   -1.0265   -0.9767 C   0  0  1  0  0  0  0  0  0  0  0  0
   -0.2508   -1.6554    0.0061 O   0  0  0  0  0  0  0  0  0  0  0  0
   -2.5669   -1.3384   -0.6414 C   0  0  1  0  0  0  0  0  0  0  0  0
   -2.5988   -2.6514   -0.0852 O   0  0  0  0  0  0  0  0  0  0  0  0
   -2.9838   -0.2629    0.4071 C   0  0  1  0  0  0  0  0  0  0  0  0
   -2.8447   -0.8627    1.7006 O   0  0  0  0  0  0  0  0  0  0  0  0
   -2.0122    0.9152    0.2358 C   0  0  2  0  0  0  0  0  0  0  0  0
   -2.9586    2.3728   -0.2907 S   0  0  0  0  0  0  0  0  0  0  0  0
   -1.3222    0.9276   -1.8526 H   0  0  0  0  0  0  0  0  0  0  0  0
    0.9428    0.9970   -1.4205 H   0  0  0  0  0  0  0  0  0  0  0  0
    0.5275   -0.0499    1.1938 H   0  0  0  0  0  0  0  0  0  0  0  0
    1.0108    1.6688    1.3122 H   0  0  0  0  0  0  0  0  0  0  0  0
    1.9302   -1.6412   -0.2139 H   0  0  0  0  0  0  0  0  0  0  0  0
    4.2827   -2.3218   -0.6903 H   0  0  0  0  0  0  0  0  0  0  0  0
    6.1380   -0.6937   -0.3809 H   0  0  0  0  0  0  0  0  0  0  0  0
    5.6459    1.6164    0.3987 H   0  0  0  0  0  0  0  0  0  0  0  0
    3.3065    2.3018    0.8677 H   0  0  0  0  0  0  0  0  0  0  0  0
   -0.7656   -1.3973   -1.9703 H   0  0  0  0  0  0  0  0  0  0  0  0
   -0.5887   -2.5869    0.1507 H   0  0  0  0  0  0  0  0  0  0  0  0
   -3.2204   -1.3574   -1.5349 H   0  0  0  0  0  0  0  0  0  0  0  0
   -2.9764   -2.6217    0.8444 H   0  0  0  0  0  0  0  0  0  0  0  0
   -4.0637   -0.0029    0.3728 H   0  0  0  0  0  0  0  0  0  0  0  0
   -1.8854   -1.0128    1.9064 H   0  0  0  0  0  0  0  0  0  0  0  0
   -1.5161    1.1422    1.2102 H   0  0  0  0  0  0  0  0  0  0  0  0
   -1.9205    3.2157   -0.5041 H   0  0  0  0  0  0  0  0  0  0  0  0
  1 18  1  6  0  0  0
  1  2  1  0  0  0  0
  1 16  1  0  0  0  0
  2  3  1  0  0  0  0
  3 20  1  0  0  0  0
  3 21  1  0  0  0  0
  4  9  1  0  0  0  0
  4  3  1  0  0  0  0
  5  4  2  0  0  0  0
  6  7  2  0  0  0  0
  6  5  1  0  0  0  0
  7  8  1  0  0  0  0
  8 25  1  0  0  0  0
  8  9  2  0  0  0  0
  9 26  1  0  0  0  0
 10 27  1  6  0  0  0
 10  1  1  0  0  0  0
 10 12  1  0  0  0  0
 10 11  1  0  0  0  0
 11 28  1  0  0  0  0
 12 29  1  6  0  0  0
 12 13  1  0  0  0  0
 12 14  1  0  0  0  0
 13 30  1  0  0  0  0
 14 31  1  6  0  0  0
 14 15  1  0  0  0  0
 15 32  1  0  0  0  0
 16 14  1  0  0  0  0
 16 33  1  1  0  0  0
 17 16  1  0  0  0  0
 19  2  1  0  0  0  0
 22  5  1  0  0  0  0
 23  6  1  0  0  0  0
 24  7  1  0  0  0  0
 34 17  1  0  0  0  0
M  END
