omegapdb_1m5f_17.log
 OpenBabel10161801213D
Gaussian 16 # PM6 Opt
 25 25  0  0  1  0  0  0  0  0999 V2000
   -2.3856    1.7623    1.1102 O   0  0  0  0  0  0  0  0  0  0  0  0
   -1.9239    1.0705    0.0238 C   0  0  0  0  0  0  0  0  0  0  0  0
   -2.6614    0.3640   -0.6216 O   0  0  0  0  0  0  0  0  0  0  0  0
   -0.4756    1.3238   -0.1534 C   0  0  0  0  0  0  0  0  0  0  0  0
    0.0145    2.2996   -0.9288 N   0  0  0  0  0  0  0  0  0  0  0  0
    1.3862    2.2440   -0.8706 O   0  0  0  0  0  0  0  0  0  0  0  0
    1.7532    1.1837   -0.0113 C   0  0  0  0  0  0  0  0  0  0  0  0
    0.6099    0.5721    0.4591 C   0  0  0  0  0  0  0  0  0  0  0  0
    0.4836   -0.5688    1.3943 C   0  0  0  0  0  0  0  0  0  0  0  0
    0.5674   -1.9538    0.7133 C   0  0  2  0  0  0  0  0  0  0  0  0
    1.9248   -2.1923    0.1758 N   0  0  0  0  0  0  0  0  0  0  0  0
   -0.5064   -2.0742   -0.3780 C   0  0  0  0  0  0  0  0  0  0  0  0
   -0.3534   -2.3788   -1.5356 O   0  0  0  0  0  0  0  0  0  0  0  0
   -1.7411   -1.7963    0.1338 O   0  0  0  0  0  0  0  0  0  0  0  0
    3.1934    1.0081    0.1751 C   0  0  0  0  0  0  0  0  0  0  0  0
   -3.3645    1.6239    1.2633 H   0  0  0  0  0  0  0  0  0  0  0  0
    1.2832   -0.5132    2.1697 H   0  0  0  0  0  0  0  0  0  0  0  0
   -0.4819   -0.5045    1.9477 H   0  0  0  0  0  0  0  0  0  0  0  0
    0.3521   -2.7409    1.4916 H   0  0  0  0  0  0  0  0  0  0  0  0
    2.0083   -3.1411   -0.1882 H   0  0  0  0  0  0  0  0  0  0  0  0
    2.1254   -1.5622   -0.6003 H   0  0  0  0  0  0  0  0  0  0  0  0
   -2.4571   -1.7265   -0.5725 H   0  0  0  0  0  0  0  0  0  0  0  0
    3.6215    1.8074    0.8060 H   0  0  0  0  0  0  0  0  0  0  0  0
    3.7427    1.0321   -0.7816 H   0  0  0  0  0  0  0  0  0  0  0  0
    3.4269    0.0446    0.6670 H   0  0  0  0  0  0  0  0  0  0  0  0
  1 16  1  0  0  0  0
  2  1  1  0  0  0  0
  3  2  2  0  0  0  0
  4  2  1  0  0  0  0
  4  8  1  0  0  0  0
  5  6  1  0  0  0  0
  5  4  2  0  0  0  0
  6  7  1  0  0  0  0
  7 15  1  0  0  0  0
  7  8  2  0  0  0  0
  8  9  1  0  0  0  0
  9 18  1  0  0  0  0
  9 17  1  0  0  0  0
 10  9  1  0  0  0  0
 10 19  1  1  0  0  0
 11 10  1  0  0  0  0
 12 14  1  0  0  0  0
 12 10  1  0  0  0  0
 13 12  2  0  0  0  0
 15 25  1  0  0  0  0
 15 23  1  0  0  0  0
 20 11  1  0  0  0  0
 21 11  1  0  0  0  0
 22 14  1  0  0  0  0
 24 15  1  0  0  0  0
M  END
