omegapdb_1m5f_12.log
 OpenBabel10161801213D
Gaussian 16 # PM6 Opt
 25 25  0  0  1  0  0  0  0  0999 V2000
    0.6433   -2.3460    0.0661 O   0  0  0  0  0  0  0  0  0  0  0  0
    1.8797   -1.8012   -0.2415 C   0  0  0  0  0  0  0  0  0  0  0  0
    2.7754   -2.5261   -0.5880 O   0  0  0  0  0  0  0  0  0  0  0  0
    1.8399   -0.3344   -0.0898 C   0  0  0  0  0  0  0  0  0  0  0  0
    2.9173    0.3756    0.2865 N   0  0  0  0  0  0  0  0  0  0  0  0
    2.5695    1.6972    0.3255 O   0  0  0  0  0  0  0  0  0  0  0  0
    1.2092    1.8151   -0.0483 C   0  0  0  0  0  0  0  0  0  0  0  0
    0.7130    0.5584   -0.3200 C   0  0  0  0  0  0  0  0  0  0  0  0
   -0.6544    0.1653   -0.7257 C   0  0  0  0  0  0  0  0  0  0  0  0
   -1.6608    0.3162    0.4378 C   0  0  2  0  0  0  0  0  0  0  0  0
   -1.2142   -0.3863    1.6578 N   0  0  0  0  0  0  0  0  0  0  0  0
   -3.0354   -0.1754   -0.0417 C   0  0  0  0  0  0  0  0  0  0  0  0
   -3.7343   -1.0474    0.4123 O   0  0  0  0  0  0  0  0  0  0  0  0
   -3.4538    0.5582   -1.1251 O   0  0  0  0  0  0  0  0  0  0  0  0
    0.6871    3.1817   -0.0456 C   0  0  0  0  0  0  0  0  0  0  0  0
    0.6477   -3.3412   -0.0118 H   0  0  0  0  0  0  0  0  0  0  0  0
   -0.6532   -0.8890   -1.0913 H   0  0  0  0  0  0  0  0  0  0  0  0
   -1.0005    0.7818   -1.5874 H   0  0  0  0  0  0  0  0  0  0  0  0
   -1.7719    1.4065    0.7042 H   0  0  0  0  0  0  0  0  0  0  0  0
   -2.0022   -0.6649    2.2412 H   0  0  0  0  0  0  0  0  0  0  0  0
   -0.6814   -1.2287    1.4322 H   0  0  0  0  0  0  0  0  0  0  0  0
   -4.3513    0.2828   -1.4570 H   0  0  0  0  0  0  0  0  0  0  0  0
    0.0617    3.3681    0.8466 H   0  0  0  0  0  0  0  0  0  0  0  0
    1.4948    3.9346   -0.0305 H   0  0  0  0  0  0  0  0  0  0  0  0
    0.0652    3.3846   -0.9334 H   0  0  0  0  0  0  0  0  0  0  0  0
  2  4  1  0  0  0  0
  2  1  1  0  0  0  0
  3  2  2  0  0  0  0
  4  5  2  0  0  0  0
  5  6  1  0  0  0  0
  7 15  1  0  0  0  0
  7  6  1  0  0  0  0
  8  4  1  0  0  0  0
  8  7  2  0  0  0  0
  9  8  1  0  0  0  0
  9 10  1  0  0  0  0
 10 19  1  1  0  0  0
 10 11  1  0  0  0  0
 11 20  1  0  0  0  0
 12 13  2  0  0  0  0
 12 10  1  0  0  0  0
 14 12  1  0  0  0  0
 15 24  1  0  0  0  0
 15 23  1  0  0  0  0
 16  1  1  0  0  0  0
 17  9  1  0  0  0  0
 18  9  1  0  0  0  0
 21 11  1  0  0  0  0
 22 14  1  0  0  0  0
 25 15  1  0  0  0  0
M  END
