omegapdb_2byh_17.log
 OpenBabel10161801213D
Gaussian 16 # PM6 Opt
 40 42  0  0  0  0  0  0  0  0999 V2000
    7.2705   -0.4716   -0.6722 O   0  0  0  0  0  0  0  0  0  0  0  0
    6.2266   -0.0654   -1.1428 C   0  0  0  0  0  0  0  0  0  0  0  0
    6.2151    0.7435   -2.4094 C   0  0  0  0  0  0  0  0  0  0  0  0
    4.9222   -0.3502   -0.4794 C   0  0  0  0  0  0  0  0  0  0  0  0
    3.6873    0.0341   -1.0209 C   0  0  0  0  0  0  0  0  0  0  0  0
    2.4961   -0.2557   -0.3588 C   0  0  0  0  0  0  0  0  0  0  0  0
    2.5327   -0.9326    0.8758 C   0  0  0  0  0  0  0  0  0  0  0  0
    3.7700   -1.3375    1.4244 C   0  0  0  0  0  0  0  0  0  0  0  0
    4.9474   -1.0441    0.7454 C   0  0  0  0  0  0  0  0  0  0  0  0
    1.3489   -1.2768    1.5843 N   0  0  0  0  0  0  0  0  0  0  0  0
    0.0691   -0.6521    1.5633 C   0  0  0  0  0  0  0  0  0  0  0  0
   -0.8394   -1.3236    2.0287 O   0  0  0  0  0  0  0  0  0  0  0  0
   -0.0683    0.7085    1.0630 C   0  0  0  0  0  0  0  0  0  0  0  0
    0.8985    1.7635    1.2262 C   0  0  0  0  0  0  0  0  0  0  0  0
    0.4052    2.9266    0.7429 N   0  0  0  0  0  0  0  0  0  0  0  0
   -0.8461    2.6478    0.2699 N   0  0  0  0  0  0  0  0  0  0  0  0
   -1.1985    1.3074    0.4573 C   0  0  0  0  0  0  0  0  0  0  0  0
   -2.4863    0.7770    0.0382 C   0  0  0  0  0  0  0  0  0  0  0  0
   -2.6648   -0.6111   -0.1552 C   0  0  0  0  0  0  0  0  0  0  0  0
   -3.8934   -1.1302   -0.5443 C   0  0  0  0  0  0  0  0  0  0  0  0
   -4.0953   -2.8051   -0.7925 Cl  0  0  0  0  0  0  0  0  0  0  0  0
   -5.0011   -0.2703   -0.7302 C   0  0  0  0  0  0  0  0  0  0  0  0
   -6.1606   -0.8722   -1.0984 O   0  0  0  0  0  0  0  0  0  0  0  0
   -4.8731    1.1113   -0.5463 C   0  0  0  0  0  0  0  0  0  0  0  0
   -3.6160    1.6040   -0.1707 C   0  0  0  0  0  0  0  0  0  0  0  0
   -3.4250    2.9529   -0.0055 O   0  0  0  0  0  0  0  0  0  0  0  0
    7.2423    0.9078   -2.7723 H   0  0  0  0  0  0  0  0  0  0  0  0
    5.7634    1.7324   -2.2614 H   0  0  0  0  0  0  0  0  0  0  0  0
    5.6681    0.2367   -3.2141 H   0  0  0  0  0  0  0  0  0  0  0  0
    3.6435    0.5618   -1.9755 H   0  0  0  0  0  0  0  0  0  0  0  0
    1.5448    0.0331   -0.8037 H   0  0  0  0  0  0  0  0  0  0  0  0
    3.8089   -1.8678    2.3739 H   0  0  0  0  0  0  0  0  0  0  0  0
    5.9157   -1.3493    1.1601 H   0  0  0  0  0  0  0  0  0  0  0  0
    1.3967   -2.1293    2.1612 H   0  0  0  0  0  0  0  0  0  0  0  0
    1.8813    1.6785    1.6688 H   0  0  0  0  0  0  0  0  0  0  0  0
   -1.4271    3.3918   -0.1101 H   0  0  0  0  0  0  0  0  0  0  0  0
   -1.8258   -1.3001    0.0140 H   0  0  0  0  0  0  0  0  0  0  0  0
   -6.9110   -0.2267   -1.2028 H   0  0  0  0  0  0  0  0  0  0  0  0
   -5.7160    1.7768   -0.6872 H   0  0  0  0  0  0  0  0  0  0  0  0
   -4.2652    3.4732   -0.0914 H   0  0  0  0  0  0  0  0  0  0  0  0
  2  1  2  0  0  0  0
  2  4  1  0  0  0  0
  3 28  1  0  0  0  0
  3  2  1  0  0  0  0
  4  9  1  0  0  0  0
  5  4  2  0  0  0  0
  5  6  1  0  0  0  0
  6  7  2  0  0  0  0
  7  8  1  0  0  0  0
  7 10  1  0  0  0  0
  8 32  1  0  0  0  0
  9 33  1  0  0  0  0
  9  8  2  0  0  0  0
 10 34  1  0  0  0  0
 11 10  1  0  0  0  0
 11 12  2  0  0  0  0
 13 14  1  0  0  0  0
 13 11  1  0  0  0  0
 14 35  1  0  0  0  0
 15 14  2  0  0  0  0
 16 17  1  0  0  0  0
 16 15  1  0  0  0  0
 17 13  2  0  0  0  0
 18 17  1  0  0  0  0
 19 37  1  0  0  0  0
 19 18  1  0  0  0  0
 20 19  2  0  0  0  0
 21 20  1  0  0  0  0
 22 24  2  0  0  0  0
 22 20  1  0  0  0  0
 23 22  1  0  0  0  0
 24 25  1  0  0  0  0
 25 26  1  0  0  0  0
 25 18  2  0  0  0  0
 27  3  1  0  0  0  0
 29  3  1  0  0  0  0
 30  5  1  0  0  0  0
 31  6  1  0  0  0  0
 36 16  1  0  0  0  0
 38 23  1  0  0  0  0
 39 24  1  0  0  0  0
 40 26  1  0  0  0  0
M  END
