omegapdb_1v2k_03.log
 OpenBabel10161801213D
Gaussian 16 # PM6 Opt
 61 65  0  0  0  0  0  0  0  0999 V2000
    9.6590    2.5811   -0.6464 N   0  0  0  0  0  0  0  0  0  0  0  0
    9.1465    2.5757    0.6148 C   0  0  0  0  0  0  0  0  0  0  0  0
    8.1063    1.7368    1.0184 C   0  0  0  0  0  0  0  0  0  0  0  0
    7.5450    0.8298    0.0835 C   0  0  0  0  0  0  0  0  0  0  0  0
    8.0691    0.8379   -1.2335 C   0  0  0  0  0  0  0  0  0  0  0  0
    9.1124    1.7151   -1.5426 C   0  0  0  0  0  0  0  0  0  0  0  0
    6.5932   -0.1288    0.4868 N   0  0  0  0  0  0  0  0  0  0  0  0
    5.8428   -0.8557   -0.5880 C   0  0  0  0  0  0  0  0  0  0  0  0
    4.7403   -1.7365    0.0134 C   0  0  0  0  0  0  0  0  0  0  0  0
    3.6752   -0.8856    0.7342 C   0  0  0  0  0  0  0  0  0  0  0  0
    4.3037    0.3497    1.4071 C   0  0  0  0  0  0  0  0  0  0  0  0
    5.7887    0.1165    1.7203 C   0  0  0  0  0  0  0  0  0  0  0  0
    2.6442   -0.4255   -0.3028 C   0  0  0  0  0  0  0  0  0  0  0  0
    2.8691    0.4787   -1.0946 O   0  0  0  0  0  0  0  0  0  0  0  0
    1.4527   -1.1639   -0.4235 N   0  0  0  0  0  0  0  0  0  0  0  0
    0.4165   -0.6820   -1.3785 C   0  0  0  0  0  0  0  0  0  0  0  0
   -0.7152    0.0544   -0.6304 C   0  0  0  0  0  0  0  0  0  0  0  0
   -1.3062   -0.7665    0.4632 N   0  0  0  0  0  0  0  0  0  0  0  0
   -0.2603   -1.2695    1.3943 C   0  0  0  0  0  0  0  0  0  0  0  0
    0.8920   -2.0008    0.6659 C   0  0  0  0  0  0  0  0  0  0  0  0
   -2.4627   -1.9624   -0.0411 S   0  0  0  0  0  0  0  0  0  0  0  0
   -2.0433   -2.5105   -1.3182 O   0  0  0  0  0  0  0  0  0  0  0  0
   -2.6226   -2.8476    1.0970 O   0  0  0  0  0  0  0  0  0  0  0  0
   -3.8936   -1.0187   -0.2743 C   0  0  0  0  0  0  0  0  0  0  0  0
   -4.5808   -0.5074    0.7997 C   0  0  0  0  0  0  0  0  0  0  0  0
   -5.7640    0.2678    0.5966 C   0  0  0  0  0  0  0  0  0  0  0  0
   -6.2205    0.4977   -0.7303 C   0  0  0  0  0  0  0  0  0  0  0  0
   -5.4882   -0.0562   -1.8278 C   0  0  0  0  0  0  0  0  0  0  0  0
   -4.3554   -0.7969   -1.6030 C   0  0  0  0  0  0  0  0  0  0  0  0
   -7.4037    1.2758   -0.9374 C   0  0  0  0  0  0  0  0  0  0  0  0
   -8.0685    1.7784    0.1515 C   0  0  0  0  0  0  0  0  0  0  0  0
   -7.6293    1.5573    1.4887 C   0  0  0  0  0  0  0  0  0  0  0  0
   -6.4967    0.8140    1.7005 C   0  0  0  0  0  0  0  0  0  0  0  0
   -9.4951    2.7184   -0.0771 Cl  0  0  0  0  0  0  0  0  0  0  0  0
    9.6027    3.2835    1.3169 H   0  0  0  0  0  0  0  0  0  0  0  0
    7.7410    1.7778    2.0408 H   0  0  0  0  0  0  0  0  0  0  0  0
    7.6844    0.1792   -2.0034 H   0  0  0  0  0  0  0  0  0  0  0  0
    9.5414    1.7418   -2.5516 H   0  0  0  0  0  0  0  0  0  0  0  0
    5.3856   -0.1382   -1.3138 H   0  0  0  0  0  0  0  0  0  0  0  0
    6.5745   -1.4871   -1.1405 H   0  0  0  0  0  0  0  0  0  0  0  0
    4.2787   -2.3465   -0.7887 H   0  0  0  0  0  0  0  0  0  0  0  0
    5.1802   -2.4621    0.7266 H   0  0  0  0  0  0  0  0  0  0  0  0
    3.1901   -1.5195    1.5193 H   0  0  0  0  0  0  0  0  0  0  0  0
    4.2063    1.2354    0.7367 H   0  0  0  0  0  0  0  0  0  0  0  0
    3.7559    0.6071    2.3304 H   0  0  0  0  0  0  0  0  0  0  0  0
    5.9162   -0.7791    2.3712 H   0  0  0  0  0  0  0  0  0  0  0  0
    6.1947    0.9816    2.2938 H   0  0  0  0  0  0  0  0  0  0  0  0
    0.0131   -1.5677   -1.9307 H   0  0  0  0  0  0  0  0  0  0  0  0
    0.8889   -0.0085   -2.1322 H   0  0  0  0  0  0  0  0  0  0  0  0
   -0.3227    0.9946   -0.1753 H   0  0  0  0  0  0  0  0  0  0  0  0
   -1.5096    0.3656   -1.3419 H   0  0  0  0  0  0  0  0  0  0  0  0
    0.1362   -0.3959    1.9603 H   0  0  0  0  0  0  0  0  0  0  0  0
   -0.7296   -1.9485    2.1473 H   0  0  0  0  0  0  0  0  0  0  0  0
    0.5272   -2.9543    0.2128 H   0  0  0  0  0  0  0  0  0  0  0  0
    1.6877   -2.2833    1.3927 H   0  0  0  0  0  0  0  0  0  0  0  0
   -4.2414   -0.6853    1.8267 H   0  0  0  0  0  0  0  0  0  0  0  0
   -5.8504    0.1175   -2.8413 H   0  0  0  0  0  0  0  0  0  0  0  0
   -3.7970   -1.2361   -2.4394 H   0  0  0  0  0  0  0  0  0  0  0  0
   -7.7565    1.4545   -1.9536 H   0  0  0  0  0  0  0  0  0  0  0  0
   -8.1998    1.9804    2.3164 H   0  0  0  0  0  0  0  0  0  0  0  0
   -6.1362    0.6259    2.7135 H   0  0  0  0  0  0  0  0  0  0  0  0
  1  2  2  0  0  0  0
  2  3  1  0  0  0  0
  2 35  1  0  0  0  0
  3 36  1  0  0  0  0
  4  7  1  0  0  0  0
  4  3  2  0  0  0  0
  5  4  1  0  0  0  0
  6  5  2  0  0  0  0
  6  1  1  0  0  0  0
  7 12  1  0  0  0  0
  8  9  1  0  0  0  0
  8  7  1  0  0  0  0
  9 42  1  0  0  0  0
  9 10  1  0  0  0  0
 10 11  1  0  0  0  0
 10 43  1  0  0  0  0
 11 12  1  0  0  0  0
 11 45  1  0  0  0  0
 12 47  1  0  0  0  0
 12 46  1  0  0  0  0
 13 10  1  0  0  0  0
 14 13  2  0  0  0  0
 15 13  1  0  0  0  0
 15 20  1  0  0  0  0
 16 17  1  0  0  0  0
 16 15  1  0  0  0  0
 17 50  1  0  0  0  0
 17 18  1  0  0  0  0
 18 19  1  0  0  0  0
 19 52  1  0  0  0  0
 19 53  1  0  0  0  0
 20 55  1  0  0  0  0
 20 19  1  0  0  0  0
 21 18  1  0  0  0  0
 21 23  2  0  0  0  0
 22 21  2  0  0  0  0
 24 21  1  0  0  0  0
 24 25  2  0  0  0  0
 25 56  1  0  0  0  0
 26 25  1  0  0  0  0
 26 33  2  0  0  0  0
 27 26  1  0  0  0  0
 28 29  2  0  0  0  0
 28 27  1  0  0  0  0
 29 24  1  0  0  0  0
 30 27  2  0  0  0  0
 30 31  1  0  0  0  0
 31 32  2  0  0  0  0
 32 33  1  0  0  0  0
 32 60  1  0  0  0  0
 33 61  1  0  0  0  0
 34 31  1  0  0  0  0
 37  5  1  0  0  0  0
 38  6  1  0  0  0  0
 39  8  1  0  0  0  0
 40  8  1  0  0  0  0
 41  9  1  0  0  0  0
 44 11  1  0  0  0  0
 48 16  1  0  0  0  0
 49 16  1  0  0  0  0
 51 17  1  0  0  0  0
 54 20  1  0  0  0  0
 57 28  1  0  0  0  0
 58 29  1  0  0  0  0
 59 30  1  0  0  0  0
M  END
