omegapdb_1xom_10.log
 OpenBabel10161801213D
Gaussian 16 # PM6 Opt
 50 52  0  0  1  0  0  0  0  0999 V2000
   -5.3862   -2.9355   -0.0611 O   0  0  0  0  0  0  0  0  0  0  0  0
   -5.0405   -1.6033   -0.1549 C   0  0  0  0  0  0  0  0  0  0  0  0
   -5.8206   -0.8189   -0.6362 O   0  0  0  0  0  0  0  0  0  0  0  0
   -3.6453   -1.4072    0.4043 C   0  0  1  0  0  0  0  0  0  0  0  0
   -2.6721   -1.1473   -0.7632 C   0  0  0  0  0  0  0  0  0  0  0  0
   -2.5673    0.3420   -1.0954 C   0  0  0  0  0  0  0  0  0  0  0  0
   -2.0036    1.1653    0.0999 C   0  0  2  0  0  0  0  0  0  0  0  0
   -2.3265    0.4831    1.4611 C   0  0  0  0  0  0  0  0  0  0  0  0
   -3.6700   -0.2462    1.4194 C   0  0  0  0  0  0  0  0  0  0  0  0
   -2.6896    2.4741    0.0789 C   0  0  0  0  0  0  0  0  0  0  0  0
   -3.2479    3.4848    0.0686 N   0  0  0  0  0  0  0  0  0  0  0  0
   -0.4906    1.3425   -0.0179 C   0  0  0  0  0  0  0  0  0  0  0  0
    0.1250    2.5884    0.1067 C   0  0  0  0  0  0  0  0  0  0  0  0
    1.5190    2.7124    0.0048 C   0  0  0  0  0  0  0  0  0  0  0  0
    2.3093    1.5885   -0.2221 C   0  0  0  0  0  0  0  0  0  0  0  0
    3.6873    1.5999   -0.3479 O   0  0  0  0  0  0  0  0  0  0  0  0
    4.3610    2.8741   -0.2040 C   0  0  0  0  0  0  0  0  0  0  0  0
    1.6941    0.3074   -0.3406 C   0  0  0  0  0  0  0  0  0  0  0  0
    0.3043    0.2028   -0.2325 C   0  0  0  0  0  0  0  0  0  0  0  0
    2.2980   -0.8941   -0.5992 O   0  0  0  0  0  0  0  0  0  0  0  0
    3.7546   -1.0365   -0.4721 C   0  0  0  0  0  0  0  0  0  0  0  0
    3.9970   -2.4551   -1.0132 C   0  0  0  0  0  0  0  0  0  0  0  0
    4.6667   -3.2564    0.1163 C   0  0  0  0  0  0  0  0  0  0  0  0
    5.0569   -2.2480    1.2151 C   0  0  0  0  0  0  0  0  0  0  0  0
    4.1702   -1.0114    1.0060 C   0  0  0  0  0  0  0  0  0  0  0  0
   -6.2914   -3.1288   -0.4217 H   0  0  0  0  0  0  0  0  0  0  0  0
   -3.3324   -2.3496    0.9256 H   0  0  0  0  0  0  0  0  0  0  0  0
   -2.9780   -1.7160   -1.6633 H   0  0  0  0  0  0  0  0  0  0  0  0
   -1.6657   -1.5416   -0.4924 H   0  0  0  0  0  0  0  0  0  0  0  0
   -3.5750    0.7190   -1.3779 H   0  0  0  0  0  0  0  0  0  0  0  0
   -1.9314    0.4946   -1.9890 H   0  0  0  0  0  0  0  0  0  0  0  0
   -2.3246    1.2370    2.2725 H   0  0  0  0  0  0  0  0  0  0  0  0
   -1.5171   -0.2280    1.7227 H   0  0  0  0  0  0  0  0  0  0  0  0
   -3.9260   -0.6313    2.4247 H   0  0  0  0  0  0  0  0  0  0  0  0
   -4.4744    0.4767    1.1574 H   0  0  0  0  0  0  0  0  0  0  0  0
   -0.4577    3.4928    0.2832 H   0  0  0  0  0  0  0  0  0  0  0  0
    1.9655    3.6995    0.1003 H   0  0  0  0  0  0  0  0  0  0  0  0
    4.1933    3.2846    0.7956 H   0  0  0  0  0  0  0  0  0  0  0  0
    5.4110    2.5852   -0.3415 H   0  0  0  0  0  0  0  0  0  0  0  0
    4.0396    3.5648   -0.9892 H   0  0  0  0  0  0  0  0  0  0  0  0
   -0.1499   -0.7890   -0.3257 H   0  0  0  0  0  0  0  0  0  0  0  0
    4.2297   -0.2441   -1.0841 H   0  0  0  0  0  0  0  0  0  0  0  0
    3.0339   -2.9126   -1.3160 H   0  0  0  0  0  0  0  0  0  0  0  0
    4.6228   -2.4276   -1.9197 H   0  0  0  0  0  0  0  0  0  0  0  0
    5.5465   -3.8094   -0.2502 H   0  0  0  0  0  0  0  0  0  0  0  0
    3.9680   -4.0117    0.5178 H   0  0  0  0  0  0  0  0  0  0  0  0
    6.1244   -1.9785    1.1322 H   0  0  0  0  0  0  0  0  0  0  0  0
    4.9212   -2.6764    2.2213 H   0  0  0  0  0  0  0  0  0  0  0  0
    4.6881   -0.0730    1.2633 H   0  0  0  0  0  0  0  0  0  0  0  0
    3.2708   -1.0564    1.6487 H   0  0  0  0  0  0  0  0  0  0  0  0
  2  1  1  0  0  0  0
  2  4  1  0  0  0  0
  3  2  2  0  0  0  0
  4 27  1  1  0  0  0
  4  9  1  0  0  0  0
  5 29  1  0  0  0  0
  5  4  1  0  0  0  0
  6  5  1  0  0  0  0
  6  7  1  0  0  0  0
  7 12  1  6  0  0  0
  7  8  1  0  0  0  0
  8 33  1  0  0  0  0
  8 32  1  0  0  0  0
  9  8  1  0  0  0  0
  9 34  1  0  0  0  0
 10  7  1  0  0  0  0
 11 10  3  0  0  0  0
 12 13  2  0  0  0  0
 13 36  1  0  0  0  0
 14 37  1  0  0  0  0
 14 13  1  0  0  0  0
 15 14  2  0  0  0  0
 16 15  1  0  0  0  0
 16 17  1  0  0  0  0
 17 38  1  0  0  0  0
 18 19  2  0  0  0  0
 18 15  1  0  0  0  0
 19 12  1  0  0  0  0
 20 21  1  0  0  0  0
 20 18  1  0  0  0  0
 21 25  1  0  0  0  0
 22 21  1  0  0  0  0
 22 23  1  0  0  0  0
 23 46  1  0  0  0  0
 23 24  1  0  0  0  0
 24 48  1  0  0  0  0
 25 24  1  0  0  0  0
 25 49  1  0  0  0  0
 25 50  1  0  0  0  0
 26  1  1  0  0  0  0
 28  5  1  0  0  0  0
 30  6  1  0  0  0  0
 31  6  1  0  0  0  0
 35  9  1  0  0  0  0
 39 17  1  0  0  0  0
 40 17  1  0  0  0  0
 41 19  1  0  0  0  0
 42 21  1  0  0  0  0
 43 22  1  0  0  0  0
 44 22  1  0  0  0  0
 45 23  1  0  0  0  0
 47 24  1  0  0  0  0
M  END
