omegapdb_1qxw_26.log
 OpenBabel10161801213D
Gaussian 16 # PM6 Opt Geom=check
 36 36  0  0  1  0  0  0  0  0999 V2000
    4.8784   -0.7537    0.9370 C   0  0  0  0  0  0  0  0  0  0  0  0
    4.6711    0.7126    0.6120 C   0  0  0  0  0  0  0  0  0  0  0  0
    3.9012   -0.3606   -0.1599 C   0  0  0  0  0  0  0  0  0  0  0  0
    2.4730   -0.6030    0.0521 N   0  0  0  0  0  0  0  0  0  0  0  0
    1.6267    0.3758   -0.6886 C   0  0  0  0  0  0  0  0  0  0  0  0
    0.1438   -0.0543   -0.5815 C   0  0  0  0  0  0  0  0  0  0  0  0
   -0.6882    0.6973    0.5134 C   0  0  1  0  0  0  0  0  0  0  0  0
   -0.8878    2.1304    0.1873 N   0  0  0  0  0  0  0  0  0  0  0  0
   -2.0348    0.0035    0.7995 C   0  0  0  0  0  0  0  0  0  0  0  0
   -3.0595    0.0669   -0.3392 C   0  0  0  0  0  0  0  0  0  0  0  0
   -4.2879   -0.8128   -0.0635 C   0  0  0  0  0  0  0  0  0  0  0  0
   -5.1956   -0.2392    1.0217 C   0  0  0  0  0  0  0  0  0  0  0  0
   -0.3695    0.2036   -1.8912 O   0  0  0  0  0  0  0  0  0  0  0  0
   -0.0418   -1.4341   -0.3400 O   0  0  0  0  0  0  0  0  0  0  0  0
    5.8124   -1.2409    0.6637 H   0  0  0  0  0  0  0  0  0  0  0  0
    4.5134   -1.1521    1.8814 H   0  0  0  0  0  0  0  0  0  0  0  0
    5.4596    1.2698    0.1130 H   0  0  0  0  0  0  0  0  0  0  0  0
    4.1564    1.3497    1.3253 H   0  0  0  0  0  0  0  0  0  0  0  0
    4.1801   -0.5501   -1.2085 H   0  0  0  0  0  0  0  0  0  0  0  0
    2.2335   -0.5878    1.0512 H   0  0  0  0  0  0  0  0  0  0  0  0
    1.7578    1.4259   -0.3546 H   0  0  0  0  0  0  0  0  0  0  0  0
    1.9150    0.3632   -1.7696 H   0  0  0  0  0  0  0  0  0  0  0  0
   -0.0832    0.6539    1.4614 H   0  0  0  0  0  0  0  0  0  0  0  0
   -1.5156    2.2371   -0.6067 H   0  0  0  0  0  0  0  0  0  0  0  0
   -0.0100    2.5710   -0.0760 H   0  0  0  0  0  0  0  0  0  0  0  0
   -1.8261   -1.0592    1.0532 H   0  0  0  0  0  0  0  0  0  0  0  0
   -2.4743    0.4626    1.7092 H   0  0  0  0  0  0  0  0  0  0  0  0
   -2.5857   -0.2651   -1.2918 H   0  0  0  0  0  0  0  0  0  0  0  0
   -3.3812    1.1142   -0.5032 H   0  0  0  0  0  0  0  0  0  0  0  0
   -4.8658   -0.9317   -1.0018 H   0  0  0  0  0  0  0  0  0  0  0  0
   -3.9640   -1.8342    0.2198 H   0  0  0  0  0  0  0  0  0  0  0  0
   -6.0758   -0.8725    1.1782 H   0  0  0  0  0  0  0  0  0  0  0  0
   -4.6740   -0.1579    1.9825 H   0  0  0  0  0  0  0  0  0  0  0  0
   -5.5524    0.7639    0.7612 H   0  0  0  0  0  0  0  0  0  0  0  0
   -1.2533   -0.2429   -2.0037 H   0  0  0  0  0  0  0  0  0  0  0  0
    0.6954   -1.9783   -0.7152 H   0  0  0  0  0  0  0  0  0  0  0  0
  1 16  1  0  0  0  0
  2  1  1  0  0  0  0
  2 18  1  0  0  0  0
  3  4  1  0  0  0  0
  3  2  1  0  0  0  0
  3  1  1  0  0  0  0
  4 20  1  0  0  0  0
  5  6  1  0  0  0  0
  5 21  1  0  0  0  0
  5  4  1  0  0  0  0
  6 14  1  0  0  0  0
  6  7  1  0  0  0  0
  7  9  1  0  0  0  0
  7 23  1  1  0  0  0
  8  7  1  0  0  0  0
  9 26  1  0  0  0  0
  9 27  1  0  0  0  0
 10 11  1  0  0  0  0
 10  9  1  0  0  0  0
 11 31  1  0  0  0  0
 11 12  1  0  0  0  0
 12 32  1  0  0  0  0
 12 33  1  0  0  0  0
 13  6  1  0  0  0  0
 15  1  1  0  0  0  0
 17  2  1  0  0  0  0
 19  3  1  0  0  0  0
 22  5  1  0  0  0  0
 24  8  1  0  0  0  0
 25  8  1  0  0  0  0
 28 10  1  0  0  0  0
 29 10  1  0  0  0  0
 30 11  1  0  0  0  0
 34 12  1  0  0  0  0
 35 13  1  0  0  0  0
 36 14  1  0  0  0  0
M  END
