omegapdb_1v2k_04.log
 OpenBabel10161801213D
Gaussian 16 # PM6 Opt
 61 65  0  0  0  0  0  0  0  0999 V2000
    9.6641    2.5755    0.6453 N   0  0  0  0  0  0  0  0  0  0  0  0
    9.1160    1.7109    1.5419 C   0  0  0  0  0  0  0  0  0  0  0  0
    8.0712    0.8353    1.2333 C   0  0  0  0  0  0  0  0  0  0  0  0
    7.5471    0.8274   -0.0837 C   0  0  0  0  0  0  0  0  0  0  0  0
    8.1099    1.7330   -1.0191 C   0  0  0  0  0  0  0  0  0  0  0  0
    9.1515    2.5704   -0.6158 C   0  0  0  0  0  0  0  0  0  0  0  0
    6.5937   -0.1297   -0.4865 N   0  0  0  0  0  0  0  0  0  0  0  0
    5.8418   -0.8546    0.5886 C   0  0  0  0  0  0  0  0  0  0  0  0
    4.7385   -1.7345   -0.0125 C   0  0  0  0  0  0  0  0  0  0  0  0
    3.6747   -0.8829   -0.7345 C   0  0  0  0  0  0  0  0  0  0  0  0
    4.3051    0.3513   -1.4077 C   0  0  0  0  0  0  0  0  0  0  0  0
    5.7898    0.1161   -1.7204 C   0  0  0  0  0  0  0  0  0  0  0  0
    2.6435   -0.4210    0.3015 C   0  0  0  0  0  0  0  0  0  0  0  0
    2.8679    0.4849    1.0914 O   0  0  0  0  0  0  0  0  0  0  0  0
    1.4524   -1.1598    0.4237 N   0  0  0  0  0  0  0  0  0  0  0  0
    0.4160   -0.6766    1.3778 C   0  0  0  0  0  0  0  0  0  0  0  0
   -0.7162    0.0577    0.6283 C   0  0  0  0  0  0  0  0  0  0  0  0
   -1.3068   -0.7657   -0.4637 N   0  0  0  0  0  0  0  0  0  0  0  0
   -0.2606   -1.2700   -1.3938 C   0  0  0  0  0  0  0  0  0  0  0  0
    0.8921   -1.9992   -0.6639 C   0  0  0  0  0  0  0  0  0  0  0  0
   -2.4626   -1.9613    0.0431 S   0  0  0  0  0  0  0  0  0  0  0  0
   -2.0422   -2.5073    1.3208 O   0  0  0  0  0  0  0  0  0  0  0  0
   -2.6227   -2.8482   -1.0936 O   0  0  0  0  0  0  0  0  0  0  0  0
   -3.8938   -1.0178    0.2756 C   0  0  0  0  0  0  0  0  0  0  0  0
   -4.5825   -0.5098   -0.7990 C   0  0  0  0  0  0  0  0  0  0  0  0
   -5.7659    0.2653   -0.5964 C   0  0  0  0  0  0  0  0  0  0  0  0
   -6.2209    0.4984    0.7304 C   0  0  0  0  0  0  0  0  0  0  0  0
   -5.4871   -0.0522    1.8285 C   0  0  0  0  0  0  0  0  0  0  0  0
   -4.3541   -0.7929    1.6043 C   0  0  0  0  0  0  0  0  0  0  0  0
   -7.4043    1.2764    0.9368 C   0  0  0  0  0  0  0  0  0  0  0  0
   -8.0707    1.7758   -0.1525 C   0  0  0  0  0  0  0  0  0  0  0  0
   -7.6330    1.5513   -1.4897 C   0  0  0  0  0  0  0  0  0  0  0  0
   -6.5002    0.8081   -1.7009 C   0  0  0  0  0  0  0  0  0  0  0  0
   -9.4975    2.7156    0.0753 Cl  0  0  0  0  0  0  0  0  0  0  0  0
    9.5450    1.7373    2.5510 H   0  0  0  0  0  0  0  0  0  0  0  0
    7.6854    0.1776    2.0035 H   0  0  0  0  0  0  0  0  0  0  0  0
    7.7447    1.7742   -2.0414 H   0  0  0  0  0  0  0  0  0  0  0  0
    9.6090    3.2770   -1.3183 H   0  0  0  0  0  0  0  0  0  0  0  0
    6.5724   -1.4865    1.1421 H   0  0  0  0  0  0  0  0  0  0  0  0
    5.3853   -0.1359    1.3136 H   0  0  0  0  0  0  0  0  0  0  0  0
    4.2757   -2.3432    0.7899 H   0  0  0  0  0  0  0  0  0  0  0  0
    5.1778   -2.4613   -0.7249 H   0  0  0  0  0  0  0  0  0  0  0  0
    3.1895   -1.5167   -1.5195 H   0  0  0  0  0  0  0  0  0  0  0  0
    3.7578    0.6091   -2.3313 H   0  0  0  0  0  0  0  0  0  0  0  0
    4.2085    1.2374   -0.7377 H   0  0  0  0  0  0  0  0  0  0  0  0
    5.9163   -0.7800   -2.3709 H   0  0  0  0  0  0  0  0  0  0  0  0
    6.1971    0.9804   -2.2941 H   0  0  0  0  0  0  0  0  0  0  0  0
    0.8880   -0.0012    2.1301 H   0  0  0  0  0  0  0  0  0  0  0  0
    0.0131   -1.5614    1.9318 H   0  0  0  0  0  0  0  0  0  0  0  0
   -0.3242    0.9973    0.1713 H   0  0  0  0  0  0  0  0  0  0  0  0
   -1.5107    0.3699    1.3392 H   0  0  0  0  0  0  0  0  0  0  0  0
    0.1354   -0.3972   -1.9615 H   0  0  0  0  0  0  0  0  0  0  0  0
   -0.7296   -1.9506   -2.1454 H   0  0  0  0  0  0  0  0  0  0  0  0
    0.5278   -2.9520   -0.2089 H   0  0  0  0  0  0  0  0  0  0  0  0
    1.6878   -2.2827   -1.3903 H   0  0  0  0  0  0  0  0  0  0  0  0
   -4.2443   -0.6902   -1.8258 H   0  0  0  0  0  0  0  0  0  0  0  0
   -5.8481    0.1239    2.8420 H   0  0  0  0  0  0  0  0  0  0  0  0
   -3.7945   -1.2297    2.4412 H   0  0  0  0  0  0  0  0  0  0  0  0
   -7.7560    1.4575    1.9530 H   0  0  0  0  0  0  0  0  0  0  0  0
   -8.2048    1.9720   -2.3179 H   0  0  0  0  0  0  0  0  0  0  0  0
   -6.1409    0.6175   -2.7138 H   0  0  0  0  0  0  0  0  0  0  0  0
  1  2  2  0  0  0  0
  2 35  1  0  0  0  0
  3  2  1  0  0  0  0
  3 36  1  0  0  0  0
  4  3  2  0  0  0  0
  5  6  2  0  0  0  0
  5  4  1  0  0  0  0
  6  1  1  0  0  0  0
  7  4  1  0  0  0  0
  7  8  1  0  0  0  0
  8 39  1  0  0  0  0
  8 40  1  0  0  0  0
  9  8  1  0  0  0  0
  9 41  1  0  0  0  0
 10  9  1  0  0  0  0
 10 13  1  0  0  0  0
 11 45  1  0  0  0  0
 11 10  1  0  0  0  0
 12 11  1  0  0  0  0
 12  7  1  0  0  0  0
 13 15  1  0  0  0  0
 13 14  2  0  0  0  0
 15 16  1  0  0  0  0
 16 49  1  0  0  0  0
 16 48  1  0  0  0  0
 17 51  1  0  0  0  0
 17 16  1  0  0  0  0
 18 21  1  0  0  0  0
 18 17  1  0  0  0  0
 19 20  1  0  0  0  0
 19 18  1  0  0  0  0
 20 54  1  0  0  0  0
 20 15  1  0  0  0  0
 21 24  1  0  0  0  0
 21 22  2  0  0  0  0
 23 21  2  0  0  0  0
 24 29  2  0  0  0  0
 25 26  2  0  0  0  0
 25 24  1  0  0  0  0
 26 27  1  0  0  0  0
 27 30  1  0  0  0  0
 27 28  2  0  0  0  0
 28 57  1  0  0  0  0
 29 28  1  0  0  0  0
 29 58  1  0  0  0  0
 30 59  1  0  0  0  0
 31 34  1  0  0  0  0
 31 30  2  0  0  0  0
 32 31  1  0  0  0  0
 33 32  2  0  0  0  0
 33 26  1  0  0  0  0
 37  5  1  0  0  0  0
 38  6  1  0  0  0  0
 42  9  1  0  0  0  0
 43 10  1  0  0  0  0
 44 11  1  0  0  0  0
 46 12  1  0  0  0  0
 47 12  1  0  0  0  0
 50 17  1  0  0  0  0
 52 19  1  0  0  0  0
 53 19  1  0  0  0  0
 55 20  1  0  0  0  0
 56 25  1  0  0  0  0
 60 32  1  0  0  0  0
 61 33  1  0  0  0  0
M  END
