omegapdb_1v2k_01.log
 OpenBabel10161801213D
Gaussian 16 # PM6 Opt
 61 65  0  0  0  0  0  0  0  0999 V2000
   -9.3543    1.3208   -0.7085 N   0  0  0  0  0  0  0  0  0  0  0  0
   -8.2698    2.1032   -0.4563 C   0  0  0  0  0  0  0  0  0  0  0  0
   -7.0619    1.6075    0.0414 C   0  0  0  0  0  0  0  0  0  0  0  0
   -6.9453    0.2230    0.3161 C   0  0  0  0  0  0  0  0  0  0  0  0
   -8.0710   -0.5956    0.0531 C   0  0  0  0  0  0  0  0  0  0  0  0
   -9.2371   -0.0095   -0.4450 C   0  0  0  0  0  0  0  0  0  0  0  0
   -5.7929   -0.3034    0.9497 N   0  0  0  0  0  0  0  0  0  0  0  0
   -5.5295   -1.7675    0.8315 C   0  0  0  0  0  0  0  0  0  0  0  0
   -4.8674   -2.1281   -0.5098 C   0  0  0  0  0  0  0  0  0  0  0  0
   -3.5872   -1.3110   -0.7606 C   0  0  0  0  0  0  0  0  0  0  0  0
   -3.8194    0.1942   -0.5214 C   0  0  0  0  0  0  0  0  0  0  0  0
   -4.5154    0.4567    0.8262 C   0  0  0  0  0  0  0  0  0  0  0  0
   -2.4547   -1.7813    0.1568 C   0  0  0  0  0  0  0  0  0  0  0  0
   -2.6300   -2.1955    1.2918 O   0  0  0  0  0  0  0  0  0  0  0  0
   -1.1437   -1.8061   -0.3789 N   0  0  0  0  0  0  0  0  0  0  0  0
   -0.0138   -1.9290    0.5849 C   0  0  0  0  0  0  0  0  0  0  0  0
    0.5187   -0.5389    1.0001 C   0  0  0  0  0  0  0  0  0  0  0  0
    0.8637    0.2644   -0.2093 N   0  0  0  0  0  0  0  0  0  0  0  0
   -0.2725    0.3925   -1.1652 C   0  0  0  0  0  0  0  0  0  0  0  0
   -0.7540   -1.0158   -1.5747 C   0  0  0  0  0  0  0  0  0  0  0  0
    1.7280    1.7377    0.0956 S   0  0  0  0  0  0  0  0  0  0  0  0
    1.2572    2.2883    1.3500 O   0  0  0  0  0  0  0  0  0  0  0  0
    1.6093    2.5098   -1.1263 O   0  0  0  0  0  0  0  0  0  0  0  0
    3.3548    1.1842    0.2959 C   0  0  0  0  0  0  0  0  0  0  0  0
    4.1028    0.7968   -0.7891 C   0  0  0  0  0  0  0  0  0  0  0  0
    5.4465    0.3428   -0.6141 C   0  0  0  0  0  0  0  0  0  0  0  0
    5.9972    0.3018    0.6963 C   0  0  0  0  0  0  0  0  0  0  0  0
    5.1961    0.7218    1.8051 C   0  0  0  0  0  0  0  0  0  0  0  0
    3.9089    1.1538    1.6073 C   0  0  0  0  0  0  0  0  0  0  0  0
    7.3414   -0.1556    0.8755 C   0  0  0  0  0  0  0  0  0  0  0  0
    8.0652   -0.5407   -0.2235 C   0  0  0  0  0  0  0  0  0  0  0  0
    7.5334   -0.5038   -1.5448 C   0  0  0  0  0  0  0  0  0  0  0  0
    6.2464   -0.0683   -1.7298 C   0  0  0  0  0  0  0  0  0  0  0  0
    9.6855   -1.0955   -0.0283 Cl  0  0  0  0  0  0  0  0  0  0  0  0
   -8.3927    3.1713   -0.6721 H   0  0  0  0  0  0  0  0  0  0  0  0
   -6.2348    2.2854    0.2309 H   0  0  0  0  0  0  0  0  0  0  0  0
   -8.0411   -1.6633    0.2511 H   0  0  0  0  0  0  0  0  0  0  0  0
  -10.1271   -0.6158   -0.6522 H   0  0  0  0  0  0  0  0  0  0  0  0
   -6.4714   -2.3385    0.9740 H   0  0  0  0  0  0  0  0  0  0  0  0
   -4.8496   -2.0520    1.6760 H   0  0  0  0  0  0  0  0  0  0  0  0
   -5.5791   -1.9497   -1.3401 H   0  0  0  0  0  0  0  0  0  0  0  0
   -4.6349   -3.2109   -0.5246 H   0  0  0  0  0  0  0  0  0  0  0  0
   -3.2911   -1.4618   -1.8315 H   0  0  0  0  0  0  0  0  0  0  0  0
   -4.4427    0.5982   -1.3448 H   0  0  0  0  0  0  0  0  0  0  0  0
   -2.8580    0.7495   -0.5626 H   0  0  0  0  0  0  0  0  0  0  0  0
   -4.7020    1.5437    0.9677 H   0  0  0  0  0  0  0  0  0  0  0  0
   -3.8601    0.1334    1.6709 H   0  0  0  0  0  0  0  0  0  0  0  0
    0.7887   -2.5272    0.1001 H   0  0  0  0  0  0  0  0  0  0  0  0
   -0.3555   -2.4914    1.4869 H   0  0  0  0  0  0  0  0  0  0  0  0
   -0.2317   -0.0227    1.6442 H   0  0  0  0  0  0  0  0  0  0  0  0
    1.4367   -0.6715    1.6149 H   0  0  0  0  0  0  0  0  0  0  0  0
    0.0798    0.9537   -2.0646 H   0  0  0  0  0  0  0  0  0  0  0  0
   -1.1307    0.9674   -0.7351 H   0  0  0  0  0  0  0  0  0  0  0  0
    0.0679   -1.5648   -2.0926 H   0  0  0  0  0  0  0  0  0  0  0  0
   -1.5974   -0.9490   -2.2957 H   0  0  0  0  0  0  0  0  0  0  0  0
    3.6900    0.8330   -1.8038 H   0  0  0  0  0  0  0  0  0  0  0  0
    5.6297    0.6970    2.8051 H   0  0  0  0  0  0  0  0  0  0  0  0
    3.2948    1.4921    2.4515 H   0  0  0  0  0  0  0  0  0  0  0  0
    7.7667   -0.1887    1.8790 H   0  0  0  0  0  0  0  0  0  0  0  0
    8.1571   -0.8199   -2.3819 H   0  0  0  0  0  0  0  0  0  0  0  0
    5.8119   -0.0265   -2.7302 H   0  0  0  0  0  0  0  0  0  0  0  0
  1  2  2  0  0  0  0
  1  6  1  0  0  0  0
  2  3  1  0  0  0  0
  3 36  1  0  0  0  0
  3  4  2  0  0  0  0
  4  7  1  0  0  0  0
  5 37  1  0  0  0  0
  5  4  1  0  0  0  0
  6  5  2  0  0  0  0
  8  7  1  0  0  0  0
  8 39  1  0  0  0  0
  8 40  1  0  0  0  0
  9  8  1  0  0  0  0
 10 11  1  0  0  0  0
 10  9  1  0  0  0  0
 10 13  1  0  0  0  0
 11 12  1  0  0  0  0
 12  7  1  0  0  0  0
 12 46  1  0  0  0  0
 12 47  1  0  0  0  0
 13 14  2  0  0  0  0
 15 13  1  0  0  0  0
 15 16  1  0  0  0  0
 16 17  1  0  0  0  0
 16 49  1  0  0  0  0
 17 51  1  0  0  0  0
 17 50  1  0  0  0  0
 18 21  1  0  0  0  0
 18 17  1  0  0  0  0
 19 53  1  0  0  0  0
 19 18  1  0  0  0  0
 20 19  1  0  0  0  0
 20 15  1  0  0  0  0
 21 24  1  0  0  0  0
 21 22  2  0  0  0  0
 23 21  2  0  0  0  0
 24 29  2  0  0  0  0
 25 26  2  0  0  0  0
 25 24  1  0  0  0  0
 26 27  1  0  0  0  0
 27 30  1  0  0  0  0
 27 28  2  0  0  0  0
 28 57  1  0  0  0  0
 29 28  1  0  0  0  0
 29 58  1  0  0  0  0
 30 59  1  0  0  0  0
 31 34  1  0  0  0  0
 31 30  2  0  0  0  0
 32 31  1  0  0  0  0
 33 32  2  0  0  0  0
 33 26  1  0  0  0  0
 35  2  1  0  0  0  0
 38  6  1  0  0  0  0
 41  9  1  0  0  0  0
 42  9  1  0  0  0  0
 43 10  1  0  0  0  0
 44 11  1  0  0  0  0
 45 11  1  0  0  0  0
 48 16  1  0  0  0  0
 52 19  1  0  0  0  0
 54 20  1  0  0  0  0
 55 20  1  0  0  0  0
 56 25  1  0  0  0  0
 60 32  1  0  0  0  0
 61 33  1  0  0  0  0
M  END
