omegapdb_2f7p_13.log
 OpenBabel10161801213D
Gaussian 16 # PM6 Opt
 34 35  0  0  1  0  0  0  0  0999 V2000
   -0.9480    0.2916   -0.6400 C   0  0  1  0  0  0  0  0  0  0  0  0
    0.4250    0.3619   -0.0949 N   0  0  0  0  0  0  0  0  0  0  0  0
    1.4798    0.1714   -1.1417 C   0  0  0  0  0  0  0  0  0  0  0  0
    2.8293    0.0665   -0.4720 C   0  0  0  0  0  0  0  0  0  0  0  0
    3.2959    1.1180    0.3315 C   0  0  0  0  0  0  0  0  0  0  0  0
    4.5511    1.0298    0.9378 C   0  0  0  0  0  0  0  0  0  0  0  0
    5.3467   -0.1048    0.7446 C   0  0  0  0  0  0  0  0  0  0  0  0
    4.8813   -1.1542   -0.0534 C   0  0  0  0  0  0  0  0  0  0  0  0
    3.6240   -1.0729   -0.6598 C   0  0  0  0  0  0  0  0  0  0  0  0
   -1.5216   -1.1569   -0.7865 C   0  0  1  0  0  0  0  0  0  0  0  0
   -1.0124   -2.0345    0.2217 O   0  0  0  0  0  0  0  0  0  0  0  0
   -3.0466   -1.0157   -0.5507 C   0  0  1  0  0  0  0  0  0  0  0  0
   -3.6063   -2.1930    0.0227 O   0  0  0  0  0  0  0  0  0  0  0  0
   -3.1648    0.1294    0.4998 C   0  0  1  0  0  0  0  0  0  0  0  0
   -3.0348   -0.4492    1.8114 O   0  0  0  0  0  0  0  0  0  0  0  0
   -1.9182    1.0119    0.3332 C   0  0  2  0  0  0  0  0  0  0  0  0
   -2.3827    2.5962   -0.4243 S   0  0  0  0  0  0  0  0  0  0  0  0
   -0.9689    0.7772   -1.6520 H   0  0  0  0  0  0  0  0  0  0  0  0
    0.5526   -0.3341    0.6540 H   0  0  0  0  0  0  0  0  0  0  0  0
    1.2917   -0.7115   -1.7918 H   0  0  0  0  0  0  0  0  0  0  0  0
    1.4659    1.0677   -1.8075 H   0  0  0  0  0  0  0  0  0  0  0  0
    2.6682    1.9968    0.4854 H   0  0  0  0  0  0  0  0  0  0  0  0
    4.9104    1.8464    1.5619 H   0  0  0  0  0  0  0  0  0  0  0  0
    6.3252   -0.1705    1.2157 H   0  0  0  0  0  0  0  0  0  0  0  0
    5.4977   -2.0390   -0.2025 H   0  0  0  0  0  0  0  0  0  0  0  0
    3.2672   -1.8971   -1.2741 H   0  0  0  0  0  0  0  0  0  0  0  0
   -1.2415   -1.6583   -1.7307 H   0  0  0  0  0  0  0  0  0  0  0  0
   -1.2106   -1.6560    1.1275 H   0  0  0  0  0  0  0  0  0  0  0  0
   -3.6319   -0.8215   -1.4703 H   0  0  0  0  0  0  0  0  0  0  0  0
   -2.8772   -2.8256    0.2870 H   0  0  0  0  0  0  0  0  0  0  0  0
   -4.1336    0.6632    0.4502 H   0  0  0  0  0  0  0  0  0  0  0  0
   -3.6896   -1.1927    1.9005 H   0  0  0  0  0  0  0  0  0  0  0  0
   -1.4361    1.1807    1.3294 H   0  0  0  0  0  0  0  0  0  0  0  0
   -2.8656    3.2312    0.6659 H   0  0  0  0  0  0  0  0  0  0  0  0
  1 18  1  6  0  0  0
  1  2  1  0  0  0  0
  1 16  1  0  0  0  0
  2 19  1  0  0  0  0
  3  4  1  0  0  0  0
  3  2  1  0  0  0  0
  4  5  1  0  0  0  0
  5 22  1  0  0  0  0
  5  6  2  0  0  0  0
  6 23  1  0  0  0  0
  7  6  1  0  0  0  0
  7 24  1  0  0  0  0
  8  7  2  0  0  0  0
  9  4  2  0  0  0  0
  9  8  1  0  0  0  0
 10 27  1  6  0  0  0
 10  1  1  0  0  0  0
 10 12  1  0  0  0  0
 10 11  1  0  0  0  0
 11 28  1  0  0  0  0
 12 29  1  6  0  0  0
 12 13  1  0  0  0  0
 12 14  1  0  0  0  0
 13 30  1  0  0  0  0
 14 31  1  6  0  0  0
 14 15  1  0  0  0  0
 15 32  1  0  0  0  0
 16 14  1  0  0  0  0
 16 33  1  1  0  0  0
 17 16  1  0  0  0  0
 17 34  1  0  0  0  0
 20  3  1  0  0  0  0
 21  3  1  0  0  0  0
 25  8  1  0  0  0  0
 26  9  1  0  0  0  0
M  END
