omegapdb_2f7p_18.log
 OpenBabel10161801213D
Gaussian 16 # PM6 Opt
 34 35  0  0  1  0  0  0  0  0999 V2000
   -1.0058    0.2842   -0.9536 C   0  0  1  0  0  0  0  0  0  0  0  0
    0.4687    0.2854   -0.9041 N   0  0  0  0  0  0  0  0  0  0  0  0
    1.0889   -0.4354    0.2519 C   0  0  0  0  0  0  0  0  0  0  0  0
    2.5883   -0.2702    0.1817 C   0  0  0  0  0  0  0  0  0  0  0  0
    3.1580    1.0112    0.1411 C   0  0  0  0  0  0  0  0  0  0  0  0
    4.5466    1.1580    0.0974 C   0  0  0  0  0  0  0  0  0  0  0  0
    5.3731    0.0293    0.0967 C   0  0  0  0  0  0  0  0  0  0  0  0
    4.8064   -1.2484    0.1354 C   0  0  0  0  0  0  0  0  0  0  0  0
    3.4174   -1.4011    0.1752 C   0  0  0  0  0  0  0  0  0  0  0  0
   -1.7638   -1.0787   -1.0559 C   0  0  1  0  0  0  0  0  0  0  0  0
   -1.2778   -2.0870   -0.1682 O   0  0  0  0  0  0  0  0  0  0  0  0
   -3.2062   -0.7254   -0.5976 C   0  0  1  0  0  0  0  0  0  0  0  0
   -3.8737   -1.8466   -0.0321 O   0  0  0  0  0  0  0  0  0  0  0  0
   -2.9952    0.3311    0.5338 C   0  0  1  0  0  0  0  0  0  0  0  0
   -2.8219   -0.3812    1.7728 O   0  0  0  0  0  0  0  0  0  0  0  0
   -1.6310    0.9873    0.2739 C   0  0  2  0  0  0  0  0  0  0  0  0
   -1.8820    2.7512   -0.0691 S   0  0  0  0  0  0  0  0  0  0  0  0
   -1.2695    0.8552   -1.8930 H   0  0  0  0  0  0  0  0  0  0  0  0
    0.8477   -0.0976   -1.7802 H   0  0  0  0  0  0  0  0  0  0  0  0
    0.8108   -1.5157    0.2811 H   0  0  0  0  0  0  0  0  0  0  0  0
    0.7100    0.0174    1.1999 H   0  0  0  0  0  0  0  0  0  0  0  0
    2.5111    1.8881    0.1345 H   0  0  0  0  0  0  0  0  0  0  0  0
    4.9859    2.1536    0.0648 H   0  0  0  0  0  0  0  0  0  0  0  0
    6.4544    0.1456    0.0655 H   0  0  0  0  0  0  0  0  0  0  0  0
    5.4478   -2.1281    0.1337 H   0  0  0  0  0  0  0  0  0  0  0  0
    2.9850   -2.3995    0.2020 H   0  0  0  0  0  0  0  0  0  0  0  0
   -1.6944   -1.5581   -2.0497 H   0  0  0  0  0  0  0  0  0  0  0  0
   -1.2968   -1.7433    0.7722 H   0  0  0  0  0  0  0  0  0  0  0  0
   -3.8655   -0.3639   -1.4099 H   0  0  0  0  0  0  0  0  0  0  0  0
   -3.2210   -2.5889    0.1272 H   0  0  0  0  0  0  0  0  0  0  0  0
   -3.8485    1.0282    0.6454 H   0  0  0  0  0  0  0  0  0  0  0  0
   -3.6006   -0.9845    1.9085 H   0  0  0  0  0  0  0  0  0  0  0  0
   -0.9874    0.8741    1.1857 H   0  0  0  0  0  0  0  0  0  0  0  0
   -0.6112    3.0657   -0.4140 H   0  0  0  0  0  0  0  0  0  0  0  0
  1 18  1  6  0  0  0
  1  2  1  0  0  0  0
  1 16  1  0  0  0  0
  2  3  1  0  0  0  0
  3 20  1  0  0  0  0
  3 21  1  0  0  0  0
  4  3  1  0  0  0  0
  5  4  2  0  0  0  0
  6  5  1  0  0  0  0
  7  6  2  0  0  0  0
  7  8  1  0  0  0  0
  8  9  2  0  0  0  0
  9  4  1  0  0  0  0
  9 26  1  0  0  0  0
 10 27  1  6  0  0  0
 10  1  1  0  0  0  0
 10 12  1  0  0  0  0
 10 11  1  0  0  0  0
 11 28  1  0  0  0  0
 12 29  1  6  0  0  0
 12 13  1  0  0  0  0
 12 14  1  0  0  0  0
 13 30  1  0  0  0  0
 14 31  1  1  0  0  0
 14 15  1  0  0  0  0
 15 32  1  0  0  0  0
 16 14  1  0  0  0  0
 16 33  1  1  0  0  0
 17 16  1  0  0  0  0
 19  2  1  0  0  0  0
 22  5  1  0  0  0  0
 23  6  1  0  0  0  0
 24  7  1  0  0  0  0
 25  8  1  0  0  0  0
 34 17  1  0  0  0  0
M  END
