omegapdb_2f7p_05.log
 OpenBabel10161801213D
Gaussian 16 # PM6 Opt
 34 35  0  0  1  0  0  0  0  0999 V2000
   -0.9582    0.2367   -0.6736 C   0  0  1  0  0  0  0  0  0  0  0  0
    0.3925    0.0448   -0.0749 N   0  0  0  0  0  0  0  0  0  0  0  0
    1.4504   -0.1866   -1.1113 C   0  0  0  0  0  0  0  0  0  0  0  0
    2.8041   -0.1279   -0.4461 C   0  0  0  0  0  0  0  0  0  0  0  0
    3.2853   -1.2373    0.2641 C   0  0  0  0  0  0  0  0  0  0  0  0
    4.5399   -1.1832    0.8773 C   0  0  0  0  0  0  0  0  0  0  0  0
    5.3170   -0.0238    0.7862 C   0  0  0  0  0  0  0  0  0  0  0  0
    4.8357    1.0846    0.0822 C   0  0  0  0  0  0  0  0  0  0  0  0
    3.5810    1.0363   -0.5321 C   0  0  0  0  0  0  0  0  0  0  0  0
   -1.5909   -1.1628   -0.9618 C   0  0  1  0  0  0  0  0  0  0  0  0
   -1.0359   -2.2219   -0.1801 O   0  0  0  0  0  0  0  0  0  0  0  0
   -3.0939   -1.0624   -0.5692 C   0  0  1  0  0  0  0  0  0  0  0  0
   -3.4588   -2.0681    0.3696 O   0  0  0  0  0  0  0  0  0  0  0  0
   -3.3096    0.3198    0.1273 C   0  0  1  0  0  0  0  0  0  0  0  0
   -3.9430    0.1772    1.3848 O   0  0  0  0  0  0  0  0  0  0  0  0
   -1.9043    0.9231    0.3294 C   0  0  2  0  0  0  0  0  0  0  0  0
   -1.8570    2.7215    0.1456 S   0  0  0  0  0  0  0  0  0  0  0  0
   -0.9263    0.8042   -1.6392 H   0  0  0  0  0  0  0  0  0  0  0  0
    0.6473    0.8541    0.5087 H   0  0  0  0  0  0  0  0  0  0  0  0
    1.2774   -1.1969   -1.5534 H   0  0  0  0  0  0  0  0  0  0  0  0
    1.3972    0.5354   -1.9570 H   0  0  0  0  0  0  0  0  0  0  0  0
    2.6778   -2.1381    0.3416 H   0  0  0  0  0  0  0  0  0  0  0  0
    4.9120   -2.0459    1.4279 H   0  0  0  0  0  0  0  0  0  0  0  0
    6.2944    0.0160    1.2636 H   0  0  0  0  0  0  0  0  0  0  0  0
    5.4386    1.9887    0.0128 H   0  0  0  0  0  0  0  0  0  0  0  0
    3.2122    1.9040   -1.0756 H   0  0  0  0  0  0  0  0  0  0  0  0
   -1.4492   -1.4880   -2.0118 H   0  0  0  0  0  0  0  0  0  0  0  0
   -0.3669   -1.8586    0.4742 H   0  0  0  0  0  0  0  0  0  0  0  0
   -3.7780   -1.2062   -1.4294 H   0  0  0  0  0  0  0  0  0  0  0  0
   -2.6379   -2.5926    0.6456 H   0  0  0  0  0  0  0  0  0  0  0  0
   -3.9902    0.9783   -0.4534 H   0  0  0  0  0  0  0  0  0  0  0  0
   -3.9323   -0.7849    1.6757 H   0  0  0  0  0  0  0  0  0  0  0  0
   -1.5941    0.7234    1.3911 H   0  0  0  0  0  0  0  0  0  0  0  0
   -2.4547    2.8522   -1.0569 H   0  0  0  0  0  0  0  0  0  0  0  0
  1 18  1  6  0  0  0
  1  2  1  0  0  0  0
  1 16  1  0  0  0  0
  2 19  1  0  0  0  0
  3  4  1  0  0  0  0
  3  2  1  0  0  0  0
  4  5  1  0  0  0  0
  5 22  1  0  0  0  0
  5  6  2  0  0  0  0
  6 23  1  0  0  0  0
  7  6  1  0  0  0  0
  7 24  1  0  0  0  0
  8  7  2  0  0  0  0
  9  4  2  0  0  0  0
  9  8  1  0  0  0  0
 10 27  1  6  0  0  0
 10  1  1  0  0  0  0
 10 12  1  0  0  0  0
 10 11  1  0  0  0  0
 11 28  1  0  0  0  0
 12 29  1  6  0  0  0
 12 14  1  0  0  0  0
 12 13  1  0  0  0  0
 13 30  1  0  0  0  0
 14 31  1  6  0  0  0
 14 16  1  0  0  0  0
 14 15  1  0  0  0  0
 15 32  1  0  0  0  0
 16 33  1  1  0  0  0
 17 16  1  0  0  0  0
 20  3  1  0  0  0  0
 21  3  1  0  0  0  0
 25  8  1  0  0  0  0
 26  9  1  0  0  0  0
 34 17  1  0  0  0  0
M  END
