omegapdb_1xom_11.log
 OpenBabel10161801213D
Gaussian 16 # PM6 Opt
 50 52  0  0  1  0  0  0  0  0999 V2000
   -6.8972    0.5273   -0.8504 O   0  0  0  0  0  0  0  0  0  0  0  0
   -5.8876   -0.1243   -0.1732 C   0  0  0  0  0  0  0  0  0  0  0  0
   -6.1608   -0.8353    0.7625 O   0  0  0  0  0  0  0  0  0  0  0  0
   -4.5534    0.2317   -0.7978 C   0  0  1  0  0  0  0  0  0  0  0  0
   -3.7643    1.1259    0.1815 C   0  0  0  0  0  0  0  0  0  0  0  0
   -2.9140    0.2855    1.1361 C   0  0  0  0  0  0  0  0  0  0  0  0
   -1.8104   -0.5006    0.3769 C   0  0  2  0  0  0  0  0  0  0  0  0
   -2.2818   -0.8601   -1.0634 C   0  0  0  0  0  0  0  0  0  0  0  0
   -3.7949   -1.0682   -1.1364 C   0  0  0  0  0  0  0  0  0  0  0  0
   -1.5814   -1.7515    1.1315 C   0  0  0  0  0  0  0  0  0  0  0  0
   -1.4134   -2.7301    1.7203 N   0  0  0  0  0  0  0  0  0  0  0  0
   -0.4800    0.2444    0.2636 C   0  0  0  0  0  0  0  0  0  0  0  0
   -0.3654    1.6107    0.5159 C   0  0  0  0  0  0  0  0  0  0  0  0
    0.8668    2.2672    0.3724 C   0  0  0  0  0  0  0  0  0  0  0  0
    1.9938    1.5589   -0.0350 C   0  0  0  0  0  0  0  0  0  0  0  0
    3.2500    2.1065   -0.2234 O   0  0  0  0  0  0  0  0  0  0  0  0
    3.4397    3.4909    0.1579 C   0  0  0  0  0  0  0  0  0  0  0  0
    1.8908    0.1605   -0.3008 C   0  0  0  0  0  0  0  0  0  0  0  0
    0.6569   -0.4778   -0.1443 C   0  0  0  0  0  0  0  0  0  0  0  0
    2.8710   -0.6719   -0.7678 O   0  0  0  0  0  0  0  0  0  0  0  0
    4.2861   -0.3003   -0.6298 C   0  0  0  0  0  0  0  0  0  0  0  0
    5.0001   -1.4499   -1.3591 C   0  0  0  0  0  0  0  0  0  0  0  0
    5.9480   -2.1053   -0.3401 C   0  0  0  0  0  0  0  0  0  0  0  0
    5.9904   -1.1832    0.8945 C   0  0  0  0  0  0  0  0  0  0  0  0
    4.7133   -0.3310    0.8447 C   0  0  0  0  0  0  0  0  0  0  0  0
   -7.7997    0.3356   -0.4819 H   0  0  0  0  0  0  0  0  0  0  0  0
   -4.7399    0.8096   -1.7403 H   0  0  0  0  0  0  0  0  0  0  0  0
   -3.1186    1.8130   -0.4026 H   0  0  0  0  0  0  0  0  0  0  0  0
   -4.4505    1.7778    0.7565 H   0  0  0  0  0  0  0  0  0  0  0  0
   -2.4667    0.9158    1.9274 H   0  0  0  0  0  0  0  0  0  0  0  0
   -3.5807   -0.4253    1.6758 H   0  0  0  0  0  0  0  0  0  0  0  0
   -1.7551   -1.7666   -1.4208 H   0  0  0  0  0  0  0  0  0  0  0  0
   -1.9767   -0.0506   -1.7576 H   0  0  0  0  0  0  0  0  0  0  0  0
   -4.0900   -1.8810   -0.4364 H   0  0  0  0  0  0  0  0  0  0  0  0
   -4.0826   -1.4196   -2.1457 H   0  0  0  0  0  0  0  0  0  0  0  0
   -1.2270    2.1965    0.8321 H   0  0  0  0  0  0  0  0  0  0  0  0
    0.9219    3.3331    0.5780 H   0  0  0  0  0  0  0  0  0  0  0  0
    3.2274    3.6285    1.2218 H   0  0  0  0  0  0  0  0  0  0  0  0
    2.8269    4.1440   -0.4699 H   0  0  0  0  0  0  0  0  0  0  0  0
    4.5075    3.6335   -0.0533 H   0  0  0  0  0  0  0  0  0  0  0  0
    0.6064   -1.5502   -0.3428 H   0  0  0  0  0  0  0  0  0  0  0  0
    4.4262    0.6858   -1.1159 H   0  0  0  0  0  0  0  0  0  0  0  0
    5.5439   -1.0779   -2.2420 H   0  0  0  0  0  0  0  0  0  0  0  0
    4.2529   -2.1762   -1.7383 H   0  0  0  0  0  0  0  0  0  0  0  0
    5.5754   -3.1066   -0.0590 H   0  0  0  0  0  0  0  0  0  0  0  0
    6.9540   -2.2542   -0.7639 H   0  0  0  0  0  0  0  0  0  0  0  0
    6.0502   -1.7649    1.8289 H   0  0  0  0  0  0  0  0  0  0  0  0
    6.8877   -0.5406    0.8684 H   0  0  0  0  0  0  0  0  0  0  0  0
    4.8690    0.6843    1.2428 H   0  0  0  0  0  0  0  0  0  0  0  0
    3.9119   -0.7872    1.4574 H   0  0  0  0  0  0  0  0  0  0  0  0
  1 26  1  0  0  0  0
  1  2  1  0  0  0  0
  2  3  2  0  0  0  0
  4 27  1  6  0  0  0
  4  2  1  0  0  0  0
  4  5  1  0  0  0  0
  5 29  1  0  0  0  0
  5  6  1  0  0  0  0
  6 31  1  0  0  0  0
  6 30  1  0  0  0  0
  7 12  1  6  0  0  0
  7 10  1  0  0  0  0
  7  6  1  0  0  0  0
  8  7  1  0  0  0  0
  9  8  1  0  0  0  0
  9  4  1  0  0  0  0
  9 34  1  0  0  0  0
 10 11  3  0  0  0  0
 12 13  2  0  0  0  0
 13 36  1  0  0  0  0
 14 13  1  0  0  0  0
 14 37  1  0  0  0  0
 15 14  2  0  0  0  0
 16 15  1  0  0  0  0
 16 17  1  0  0  0  0
 17 38  1  0  0  0  0
 18 19  2  0  0  0  0
 18 15  1  0  0  0  0
 19 12  1  0  0  0  0
 20 21  1  0  0  0  0
 20 18  1  0  0  0  0
 21 25  1  0  0  0  0
 22 21  1  0  0  0  0
 22 23  1  0  0  0  0
 23 45  1  0  0  0  0
 23 24  1  0  0  0  0
 24 47  1  0  0  0  0
 25 24  1  0  0  0  0
 25 49  1  0  0  0  0
 25 50  1  0  0  0  0
 28  5  1  0  0  0  0
 32  8  1  0  0  0  0
 33  8  1  0  0  0  0
 35  9  1  0  0  0  0
 39 17  1  0  0  0  0
 40 17  1  0  0  0  0
 41 19  1  0  0  0  0
 42 21  1  0  0  0  0
 43 22  1  0  0  0  0
 44 22  1  0  0  0  0
 46 23  1  0  0  0  0
 48 24  1  0  0  0  0
M  END
