omegapdb_1qxw_01.log
 OpenBabel10161801213D
Gaussian 16 # PM6 Opt
 36 36  0  0  1  0  0  0  0  0999 V2000
   -5.2687   -0.2798    0.3389 C   0  0  0  0  0  0  0  0  0  0  0  0
   -4.6416    1.0932    0.4720 C   0  0  0  0  0  0  0  0  0  0  0  0
   -4.0702    0.0916   -0.5262 C   0  0  0  0  0  0  0  0  0  0  0  0
   -2.7899   -0.5455   -0.1730 N   0  0  0  0  0  0  0  0  0  0  0  0
   -1.6266    0.2062   -0.7293 C   0  0  0  0  0  0  0  0  0  0  0  0
   -0.3497   -0.3795   -0.0970 C   0  0  0  0  0  0  0  0  0  0  0  0
    0.9602    0.3863   -0.4554 C   0  0  1  0  0  0  0  0  0  0  0  0
    0.7591    1.8080   -0.0647 N   0  0  0  0  0  0  0  0  0  0  0  0
    2.1766   -0.2928    0.2066 C   0  0  0  0  0  0  0  0  0  0  0  0
    3.5048    0.3246   -0.2415 C   0  0  0  0  0  0  0  0  0  0  0  0
    4.6997   -0.4083    0.3860 C   0  0  0  0  0  0  0  0  0  0  0  0
    6.0286    0.2062   -0.0470 C   0  0  0  0  0  0  0  0  0  0  0  0
   -0.4009   -0.4762    1.3170 O   0  0  0  0  0  0  0  0  0  0  0  0
   -0.2615   -1.7264   -0.5833 O   0  0  0  0  0  0  0  0  0  0  0  0
   -5.1406   -0.9991    1.1468 H   0  0  0  0  0  0  0  0  0  0  0  0
   -6.2458   -0.3884   -0.1238 H   0  0  0  0  0  0  0  0  0  0  0  0
   -4.0713    1.3287    1.3697 H   0  0  0  0  0  0  0  0  0  0  0  0
   -5.1690    1.9697    0.1065 H   0  0  0  0  0  0  0  0  0  0  0  0
   -4.2340    0.2775   -1.5975 H   0  0  0  0  0  0  0  0  0  0  0  0
   -2.7702   -1.5139   -0.5266 H   0  0  0  0  0  0  0  0  0  0  0  0
   -1.7106    1.2854   -0.4551 H   0  0  0  0  0  0  0  0  0  0  0  0
   -1.5451    0.1622   -1.8359 H   0  0  0  0  0  0  0  0  0  0  0  0
    1.0766    0.3490   -1.5716 H   0  0  0  0  0  0  0  0  0  0  0  0
    1.5875    2.3556   -0.2825 H   0  0  0  0  0  0  0  0  0  0  0  0
    0.6110    1.8780    0.9421 H   0  0  0  0  0  0  0  0  0  0  0  0
    2.0750   -0.2446    1.3099 H   0  0  0  0  0  0  0  0  0  0  0  0
    2.1665   -1.3730   -0.0438 H   0  0  0  0  0  0  0  0  0  0  0  0
    3.5446    1.3962    0.0321 H   0  0  0  0  0  0  0  0  0  0  0  0
    3.5850    0.2913   -1.3458 H   0  0  0  0  0  0  0  0  0  0  0  0
    4.6186   -0.3846    1.4906 H   0  0  0  0  0  0  0  0  0  0  0  0
    4.6744   -1.4795    0.1046 H   0  0  0  0  0  0  0  0  0  0  0  0
    6.1064    1.2571    0.2537 H   0  0  0  0  0  0  0  0  0  0  0  0
    6.8750   -0.3257    0.4023 H   0  0  0  0  0  0  0  0  0  0  0  0
    6.1577    0.1660   -1.1346 H   0  0  0  0  0  0  0  0  0  0  0  0
   -1.3334   -0.6077    1.6352 H   0  0  0  0  0  0  0  0  0  0  0  0
    0.1778   -2.3042    0.0747 H   0  0  0  0  0  0  0  0  0  0  0  0
  1  2  1  0  0  0  0
  1 15  1  0  0  0  0
  2 17  1  0  0  0  0
  3  4  1  0  0  0  0
  3  1  1  0  0  0  0
  3  2  1  0  0  0  0
  5 21  1  0  0  0  0
  5  4  1  0  0  0  0
  5  6  1  0  0  0  0
  6 13  1  0  0  0  0
  7 23  1  6  0  0  0
  7  6  1  0  0  0  0
  7  8  1  0  0  0  0
  7  9  1  0  0  0  0
  8 25  1  0  0  0  0
  9 26  1  0  0  0  0
 10 28  1  0  0  0  0
 10  9  1  0  0  0  0
 10 11  1  0  0  0  0
 11 30  1  0  0  0  0
 12 32  1  0  0  0  0
 12 11  1  0  0  0  0
 12 33  1  0  0  0  0
 13 35  1  0  0  0  0
 14  6  1  0  0  0  0
 14 36  1  0  0  0  0
 16  1  1  0  0  0  0
 18  2  1  0  0  0  0
 19  3  1  0  0  0  0
 20  4  1  0  0  0  0
 22  5  1  0  0  0  0
 24  8  1  0  0  0  0
 27  9  1  0  0  0  0
 29 10  1  0  0  0  0
 31 11  1  0  0  0  0
 34 12  1  0  0  0  0
M  END
