omegapdb_1m5f_02.log
 OpenBabel10161801213D
Gaussian 16 # PM6 Opt
 25 25  0  0  1  0  0  0  0  0999 V2000
   -2.2045   -2.7437   -0.5506 O   0  0  0  0  0  0  0  0  0  0  0  0
   -1.2867   -1.9738    0.1007 C   0  0  0  0  0  0  0  0  0  0  0  0
   -0.2986   -2.4626    0.6001 O   0  0  0  0  0  0  0  0  0  0  0  0
   -1.6689   -0.5455    0.0677 C   0  0  0  0  0  0  0  0  0  0  0  0
   -2.8693   -0.0733    0.4326 N   0  0  0  0  0  0  0  0  0  0  0  0
   -2.8540    1.2899    0.2949 O   0  0  0  0  0  0  0  0  0  0  0  0
   -1.5805    1.6767   -0.1839 C   0  0  0  0  0  0  0  0  0  0  0  0
   -0.7982    0.5514   -0.3334 C   0  0  0  0  0  0  0  0  0  0  0  0
    0.5966    0.4565   -0.8150 C   0  0  0  0  0  0  0  0  0  0  0  0
    1.5705   -0.0329    0.2771 C   0  0  2  0  0  0  0  0  0  0  0  0
    1.6257    0.8065    1.4978 N   0  0  0  0  0  0  0  0  0  0  0  0
    2.9893   -0.1023   -0.3132 C   0  0  0  0  0  0  0  0  0  0  0  0
    3.2491   -0.2804   -1.4776 O   0  0  0  0  0  0  0  0  0  0  0  0
    4.0286    0.0115    0.5637 O   0  0  0  0  0  0  0  0  0  0  0  0
   -1.4195    3.1144   -0.4024 C   0  0  0  0  0  0  0  0  0  0  0  0
   -1.9657   -3.7174   -0.5334 H   0  0  0  0  0  0  0  0  0  0  0  0
    0.6597   -0.2381   -1.6889 H   0  0  0  0  0  0  0  0  0  0  0  0
    0.9375    1.4337   -1.2229 H   0  0  0  0  0  0  0  0  0  0  0  0
    1.2915   -1.0920    0.5768 H   0  0  0  0  0  0  0  0  0  0  0  0
    1.5045    1.7911    1.2752 H   0  0  0  0  0  0  0  0  0  0  0  0
    0.8817    0.5485    2.1431 H   0  0  0  0  0  0  0  0  0  0  0  0
    3.7452    0.2036    1.5087 H   0  0  0  0  0  0  0  0  0  0  0  0
   -1.2058    3.3411   -1.4627 H   0  0  0  0  0  0  0  0  0  0  0  0
   -2.3312    3.6787   -0.1342 H   0  0  0  0  0  0  0  0  0  0  0  0
   -0.5932    3.5342    0.1948 H   0  0  0  0  0  0  0  0  0  0  0  0
  1 16  1  0  0  0  0
  1  2  1  0  0  0  0
  2  3  2  0  0  0  0
  4  2  1  0  0  0  0
  4  5  2  0  0  0  0
  6  5  1  0  0  0  0
  7  6  1  0  0  0  0
  8  7  2  0  0  0  0
  8  4  1  0  0  0  0
  9  8  1  0  0  0  0
  9 10  1  0  0  0  0
 10 19  1  1  0  0  0
 10 11  1  0  0  0  0
 11 21  1  0  0  0  0
 12 10  1  0  0  0  0
 12 14  1  0  0  0  0
 13 12  2  0  0  0  0
 14 22  1  0  0  0  0
 15  7  1  0  0  0  0
 15 24  1  0  0  0  0
 15 25  1  0  0  0  0
 17  9  1  0  0  0  0
 18  9  1  0  0  0  0
 20 11  1  0  0  0  0
 23 15  1  0  0  0  0
M  END
