omegapdb_1z1r_18.log
 OpenBabel10161801213D
Gaussian 16 # PM6 Opt
 66 68  0  0  1  0  0  0  0  0999 V2000
    1.1194    0.9864   -0.5735 C   0  0  2  0  0  0  0  0  0  0  0  0
    1.1346    0.0880   -1.8394 C   0  0  0  0  0  0  0  0  0  0  0  0
   -0.1113   -0.7447   -1.9498 C   0  0  0  0  0  0  0  0  0  0  0  0
   -0.4265   -1.6688   -0.9387 C   0  0  0  0  0  0  0  0  0  0  0  0
   -1.6759   -2.2851   -0.9108 C   0  0  0  0  0  0  0  0  0  0  0  0
   -2.5946   -1.9808   -1.9249 C   0  0  0  0  0  0  0  0  0  0  0  0
   -2.2591   -1.1533   -3.0065 C   0  0  0  0  0  0  0  0  0  0  0  0
   -1.0086   -0.5360   -3.0096 C   0  0  0  0  0  0  0  0  0  0  0  0
   -3.8934   -2.4814   -1.9269 O   0  0  0  0  0  0  0  0  0  0  0  0
   -4.6357   -2.2504   -0.6967 C   0  0  0  0  0  0  0  0  0  0  0  0
   -4.8311   -0.7457   -0.4824 C   0  0  0  0  0  0  0  0  0  0  0  0
   -5.1450   -0.3857    0.9682 C   0  0  0  0  0  0  0  0  0  0  0  0
   -4.0556   -0.8032    1.9346 C   0  0  0  0  0  0  0  0  0  0  0  0
   -4.1902   -1.7363    2.7108 O   0  0  0  0  0  0  0  0  0  0  0  0
   -2.8620   -0.0735    2.0158 N   0  0  0  0  0  0  0  0  0  0  0  0
   -2.3926    0.9438    1.0624 C   0  0  2  0  0  0  0  0  0  0  0  0
   -0.8571    0.7602    0.9144 C   0  0  0  0  0  0  0  0  0  0  0  0
   -0.2118    0.1339    1.7463 O   0  0  0  0  0  0  0  0  0  0  0  0
   -0.2668    1.3565   -0.1857 N   0  0  0  0  0  0  0  0  0  0  0  0
   -2.7055    2.3645    1.5770 C   0  0  0  0  0  0  0  0  0  0  0  0
   -2.7576    3.3493    0.4291 C   0  0  0  0  0  0  0  0  0  0  0  0
   -2.6060    3.0325   -0.7434 O   0  0  0  0  0  0  0  0  0  0  0  0
   -3.0161    4.6727    0.7601 N   0  0  0  0  0  0  0  0  0  0  0  0
    1.9360    2.2896   -0.7737 C   0  0  2  0  0  0  0  0  0  0  0  0
    1.4920    3.0312   -1.9130 O   0  0  0  0  0  0  0  0  0  0  0  0
    3.4548    2.0272   -0.9321 C   0  0  0  0  0  0  0  0  0  0  0  0
    3.9953    1.5284    0.3498 N   0  0  0  0  0  0  0  0  0  0  0  0
    4.9788    0.1072    0.3332 S   0  0  0  0  0  0  0  0  0  0  0  0
    5.9267    0.3203    1.4034 O   0  0  0  0  0  0  0  0  0  0  0  0
    5.4355   -0.0919   -1.0311 O   0  0  0  0  0  0  0  0  0  0  0  0
    3.8666   -1.1541    0.7200 C   0  0  0  0  0  0  0  0  0  0  0  0
    3.7943   -2.2769   -0.1145 C   0  0  0  0  0  0  0  0  0  0  0  0
    2.9064   -3.3125    0.1832 C   0  0  0  0  0  0  0  0  0  0  0  0
    2.0848   -3.2235    1.3142 C   0  0  0  0  0  0  0  0  0  0  0  0
    2.1528   -2.1014    2.1448 C   0  0  0  0  0  0  0  0  0  0  0  0
    3.0507   -1.0687    1.8521 C   0  0  0  0  0  0  0  0  0  0  0  0
    1.5779    0.4117    0.2860 H   0  0  0  0  0  0  0  0  0  0  0  0
    1.2644    0.7144   -2.7482 H   0  0  0  0  0  0  0  0  0  0  0  0
    2.0300   -0.5693   -1.8029 H   0  0  0  0  0  0  0  0  0  0  0  0
    0.2950   -1.8721   -0.1435 H   0  0  0  0  0  0  0  0  0  0  0  0
   -1.9394   -2.9775   -0.1142 H   0  0  0  0  0  0  0  0  0  0  0  0
   -2.9790   -0.9879   -3.8054 H   0  0  0  0  0  0  0  0  0  0  0  0
   -0.7467    0.1345   -3.8272 H   0  0  0  0  0  0  0  0  0  0  0  0
   -5.5800   -2.7809   -0.9188 H   0  0  0  0  0  0  0  0  0  0  0  0
   -4.1229   -2.7462    0.1460 H   0  0  0  0  0  0  0  0  0  0  0  0
   -5.6421   -0.3765   -1.1433 H   0  0  0  0  0  0  0  0  0  0  0  0
   -3.9213   -0.1918   -0.8184 H   0  0  0  0  0  0  0  0  0  0  0  0
   -5.3497    0.7002    1.0554 H   0  0  0  0  0  0  0  0  0  0  0  0
   -6.0869   -0.8890    1.2888 H   0  0  0  0  0  0  0  0  0  0  0  0
   -2.1563   -0.4003    2.6980 H   0  0  0  0  0  0  0  0  0  0  0  0
   -2.8855    0.7896    0.0518 H   0  0  0  0  0  0  0  0  0  0  0  0
   -0.8186    1.8825   -0.8781 H   0  0  0  0  0  0  0  0  0  0  0  0
   -3.6747    2.3571    2.1229 H   0  0  0  0  0  0  0  0  0  0  0  0
   -1.9588    2.6726    2.3398 H   0  0  0  0  0  0  0  0  0  0  0  0
   -3.0357    5.3738    0.0316 H   0  0  0  0  0  0  0  0  0  0  0  0
   -3.1061    5.0052    1.7027 H   0  0  0  0  0  0  0  0  0  0  0  0
    1.7418    3.0043    0.0625 H   0  0  0  0  0  0  0  0  0  0  0  0
    1.4521    2.4618   -2.7146 H   0  0  0  0  0  0  0  0  0  0  0  0
    3.6527    1.3106   -1.7629 H   0  0  0  0  0  0  0  0  0  0  0  0
    3.9399    2.9796   -1.2518 H   0  0  0  0  0  0  0  0  0  0  0  0
    4.2812    2.2906    0.9767 H   0  0  0  0  0  0  0  0  0  0  0  0
    4.4332   -2.3432   -1.0034 H   0  0  0  0  0  0  0  0  0  0  0  0
    2.8523   -4.1879   -0.4630 H   0  0  0  0  0  0  0  0  0  0  0  0
    1.3885   -4.0313    1.5458 H   0  0  0  0  0  0  0  0  0  0  0  0
    1.4960   -2.0177    3.0122 H   0  0  0  0  0  0  0  0  0  0  0  0
    3.0978   -0.1970    2.5114 H   0  0  0  0  0  0  0  0  0  0  0  0
  1 19  1  0  0  0  0
  1 37  1  1  0  0  0
  2 39  1  0  0  0  0
  2  1  1  0  0  0  0
  3  2  1  0  0  0  0
  3  4  2  0  0  0  0
  4  5  1  0  0  0  0
  4 40  1  0  0  0  0
  5 41  1  0  0  0  0
  6  5  2  0  0  0  0
  7  6  1  0  0  0  0
  8  7  2  0  0  0  0
  8  3  1  0  0  0  0
  9  6  1  0  0  0  0
  9 10  1  0  0  0  0
 10 11  1  0  0  0  0
 10 45  1  0  0  0  0
 11 12  1  0  0  0  0
 12 48  1  0  0  0  0
 12 49  1  0  0  0  0
 12 13  1  0  0  0  0
 13 15  1  0  0  0  0
 13 14  2  0  0  0  0
 15 50  1  0  0  0  0
 16 51  1  6  0  0  0
 16 20  1  0  0  0  0
 16 15  1  0  0  0  0
 17 16  1  0  0  0  0
 17 18  2  0  0  0  0
 19 17  1  0  0  0  0
 20 53  1  0  0  0  0
 20 54  1  0  0  0  0
 21 23  1  0  0  0  0
 21 20  1  0  0  0  0
 22 21  2  0  0  0  0
 23 56  1  0  0  0  0
 24  1  1  0  0  0  0
 24 57  1  1  0  0  0
 25 24  1  0  0  0  0
 26 24  1  0  0  0  0
 26 27  1  0  0  0  0
 27 61  1  0  0  0  0
 28 27  1  0  0  0  0
 28 31  1  0  0  0  0
 28 29  2  0  0  0  0
 30 28  2  0  0  0  0
 31 36  2  0  0  0  0
 32 33  2  0  0  0  0
 32 31  1  0  0  0  0
 33 34  1  0  0  0  0
 34 64  1  0  0  0  0
 34 35  2  0  0  0  0
 35 65  1  0  0  0  0
 36 35  1  0  0  0  0
 36 66  1  0  0  0  0
 38  2  1  0  0  0  0
 42  7  1  0  0  0  0
 43  8  1  0  0  0  0
 44 10  1  0  0  0  0
 46 11  1  0  0  0  0
 47 11  1  0  0  0  0
 52 19  1  0  0  0  0
 55 23  1  0  0  0  0
 58 25  1  0  0  0  0
 59 26  1  0  0  0  0
 60 26  1  0  0  0  0
 62 32  1  0  0  0  0
 63 33  1  0  0  0  0
M  END
