omegapdb_1qxw_12.log
 OpenBabel10161801213D
Gaussian 16 # PM6 Opt
 36 36  0  0  1  0  0  0  0  0999 V2000
   -5.2412   -0.5551    0.1519 C   0  0  0  0  0  0  0  0  0  0  0  0
   -4.7780    0.0717   -1.1484 C   0  0  0  0  0  0  0  0  0  0  0  0
   -4.0156    0.3460    0.1490 C   0  0  0  0  0  0  0  0  0  0  0  0
   -2.7062   -0.2471    0.4270 N   0  0  0  0  0  0  0  0  0  0  0  0
   -1.6044    0.4712   -0.2830 C   0  0  0  0  0  0  0  0  0  0  0  0
   -0.2633   -0.1088    0.2177 C   0  0  0  0  0  0  0  0  0  0  0  0
    0.9974    0.6581   -0.3137 C   0  0  1  0  0  0  0  0  0  0  0  0
    1.2062    1.9384    0.4097 N   0  0  0  0  0  0  0  0  0  0  0  0
    2.2524   -0.2300   -0.2110 C   0  0  0  0  0  0  0  0  0  0  0  0
    3.4729    0.4292   -0.8647 C   0  0  0  0  0  0  0  0  0  0  0  0
    4.7215   -0.4610   -0.7981 C   0  0  0  0  0  0  0  0  0  0  0  0
    5.3184   -0.5442    0.6051 C   0  0  0  0  0  0  0  0  0  0  0  0
   -0.1460   -0.1232    1.6299 O   0  0  0  0  0  0  0  0  0  0  0  0
   -0.2777   -1.4734   -0.2058 O   0  0  0  0  0  0  0  0  0  0  0  0
   -6.1556   -0.2037    0.6256 H   0  0  0  0  0  0  0  0  0  0  0  0
   -5.1330   -1.6278    0.2990 H   0  0  0  0  0  0  0  0  0  0  0  0
   -5.3655    0.8641   -1.6039 H   0  0  0  0  0  0  0  0  0  0  0  0
   -4.3374   -0.5586   -1.9164 H   0  0  0  0  0  0  0  0  0  0  0  0
   -4.0967    1.3474    0.5995 H   0  0  0  0  0  0  0  0  0  0  0  0
   -2.6780   -1.2433    0.1591 H   0  0  0  0  0  0  0  0  0  0  0  0
   -1.6575    0.3751   -1.3900 H   0  0  0  0  0  0  0  0  0  0  0  0
   -1.6597    1.5555   -0.0464 H   0  0  0  0  0  0  0  0  0  0  0  0
    0.8130    0.9050   -1.3934 H   0  0  0  0  0  0  0  0  0  0  0  0
    0.3352    2.4538    0.4984 H   0  0  0  0  0  0  0  0  0  0  0  0
    1.5366    1.7597    1.3573 H   0  0  0  0  0  0  0  0  0  0  0  0
    2.4690   -0.4561    0.8522 H   0  0  0  0  0  0  0  0  0  0  0  0
    2.0481   -1.2031   -0.7020 H   0  0  0  0  0  0  0  0  0  0  0  0
    3.6747    1.4064   -0.3792 H   0  0  0  0  0  0  0  0  0  0  0  0
    3.2466    0.6697   -1.9216 H   0  0  0  0  0  0  0  0  0  0  0  0
    5.4839   -0.0632   -1.4978 H   0  0  0  0  0  0  0  0  0  0  0  0
    4.4823   -1.4783   -1.1645 H   0  0  0  0  0  0  0  0  0  0  0  0
    5.5949    0.4473    0.9824 H   0  0  0  0  0  0  0  0  0  0  0  0
    6.2204   -1.1655    0.6171 H   0  0  0  0  0  0  0  0  0  0  0  0
    4.6097   -0.9765    1.3204 H   0  0  0  0  0  0  0  0  0  0  0  0
   -1.0147   -0.3180    2.0669 H   0  0  0  0  0  0  0  0  0  0  0  0
    0.3116   -2.0188    0.3590 H   0  0  0  0  0  0  0  0  0  0  0  0
  1 16  1  0  0  0  0
  1 15  1  0  0  0  0
  2  3  1  0  0  0  0
  2  1  1  0  0  0  0
  3  1  1  0  0  0  0
  3  4  1  0  0  0  0
  3 19  1  0  0  0  0
  5 22  1  0  0  0  0
  5  6  1  0  0  0  0
  5  4  1  0  0  0  0
  6 13  1  0  0  0  0
  7 23  1  6  0  0  0
  7  9  1  0  0  0  0
  7  6  1  0  0  0  0
  7  8  1  0  0  0  0
  8 24  1  0  0  0  0
  8 25  1  0  0  0  0
  9 26  1  0  0  0  0
 10 11  1  0  0  0  0
 10 28  1  0  0  0  0
 10  9  1  0  0  0  0
 11 12  1  0  0  0  0
 12 33  1  0  0  0  0
 12 32  1  0  0  0  0
 12 34  1  0  0  0  0
 13 35  1  0  0  0  0
 14  6  1  0  0  0  0
 14 36  1  0  0  0  0
 17  2  1  0  0  0  0
 18  2  1  0  0  0  0
 20  4  1  0  0  0  0
 21  5  1  0  0  0  0
 27  9  1  0  0  0  0
 29 10  1  0  0  0  0
 30 11  1  0  0  0  0
 31 11  1  0  0  0  0
M  END
