omegapdb_1gs5_03.log
 OpenBabel10161801213D
Gaussian 16 # PM6 Opt
 24 23  0  0  1  0  0  0  0  0999 V2000
    0.6738    0.4929   -0.4620 C   0  0  2  0  0  0  0  0  0  0  0  0
    0.4874    1.7471    0.4005 C   0  0  0  0  0  0  0  0  0  0  0  0
    0.1221    1.8383    1.5489 O   0  0  0  0  0  0  0  0  0  0  0  0
    0.7886    2.8581   -0.3347 O   0  0  0  0  0  0  0  0  0  0  0  0
   -0.7027   -0.0545   -0.8772 C   0  0  0  0  0  0  0  0  0  0  0  0
   -1.5808   -0.4872    0.2979 C   0  0  0  0  0  0  0  0  0  0  0  0
   -3.0152   -0.6047   -0.1205 C   0  0  0  0  0  0  0  0  0  0  0  0
   -3.6171   -0.0791   -1.0252 O   0  0  0  0  0  0  0  0  0  0  0  0
   -3.6723   -1.4646    0.7326 O   0  0  0  0  0  0  0  0  0  0  0  0
    1.4679   -0.4710    0.3162 N   0  0  0  0  0  0  0  0  0  0  0  0
    2.6784   -0.9820   -0.1939 C   0  0  0  0  0  0  0  0  0  0  0  0
    3.0713   -0.6400   -1.2924 O   0  0  0  0  0  0  0  0  0  0  0  0
    3.3837   -1.9410    0.7166 C   0  0  0  0  0  0  0  0  0  0  0  0
    1.2544    0.7714   -1.4004 H   0  0  0  0  0  0  0  0  0  0  0  0
    0.6762    3.7092    0.1737 H   0  0  0  0  0  0  0  0  0  0  0  0
   -1.2328    0.7162   -1.4849 H   0  0  0  0  0  0  0  0  0  0  0  0
   -0.5497   -0.9114   -1.5693 H   0  0  0  0  0  0  0  0  0  0  0  0
   -1.5177    0.2438    1.1443 H   0  0  0  0  0  0  0  0  0  0  0  0
   -1.2302   -1.4500    0.7307 H   0  0  0  0  0  0  0  0  0  0  0  0
   -4.6382   -1.5609    0.5145 H   0  0  0  0  0  0  0  0  0  0  0  0
    1.1038   -0.7398    1.2256 H   0  0  0  0  0  0  0  0  0  0  0  0
    4.3260   -2.2767    0.2489 H   0  0  0  0  0  0  0  0  0  0  0  0
    3.6518   -1.4874    1.6811 H   0  0  0  0  0  0  0  0  0  0  0  0
    2.7910   -2.8429    0.9211 H   0  0  0  0  0  0  0  0  0  0  0  0
  1 14  1  6  0  0  0
  1 10  1  0  0  0  0
  1  2  1  0  0  0  0
  2  3  2  0  0  0  0
  4 15  1  0  0  0  0
  4  2  1  0  0  0  0
  5  1  1  0  0  0  0
  5  6  1  0  0  0  0
  6 19  1  0  0  0  0
  6 18  1  0  0  0  0
  7  6  1  0  0  0  0
  7  9  1  0  0  0  0
  8  7  2  0  0  0  0
 10 21  1  0  0  0  0
 11 10  1  0  0  0  0
 11 13  1  0  0  0  0
 12 11  2  0  0  0  0
 13 24  1  0  0  0  0
 13 23  1  0  0  0  0
 16  5  1  0  0  0  0
 17  5  1  0  0  0  0
 20  9  1  0  0  0  0
 22 13  1  0  0  0  0
M  END
