omegapdb_1qxw_16.log
 OpenBabel10161801213D
Gaussian 16 # PM6 Opt
 36 36  0  0  1  0  0  0  0  0999 V2000
   -3.6740   -2.2160    0.4623 C   0  0  0  0  0  0  0  0  0  0  0  0
   -4.2556   -1.1245   -0.4148 C   0  0  0  0  0  0  0  0  0  0  0  0
   -2.7522   -1.4072   -0.4378 C   0  0  0  0  0  0  0  0  0  0  0  0
   -1.7755   -0.5083    0.1809 N   0  0  0  0  0  0  0  0  0  0  0  0
   -1.4792    0.6670   -0.6911 C   0  0  0  0  0  0  0  0  0  0  0  0
   -0.4141    1.5522   -0.0091 C   0  0  0  0  0  0  0  0  0  0  0  0
    0.9960    0.9609    0.2875 C   0  0  1  0  0  0  0  0  0  0  0  0
    0.9279    0.2948    1.6168 N   0  0  0  0  0  0  0  0  0  0  0  0
    1.4836    0.0657   -0.8661 C   0  0  0  0  0  0  0  0  0  0  0  0
    2.9930   -0.2007   -0.8292 C   0  0  0  0  0  0  0  0  0  0  0  0
    3.3916   -1.3177    0.1455 C   0  0  0  0  0  0  0  0  0  0  0  0
    4.8880   -1.6141    0.0813 C   0  0  0  0  0  0  0  0  0  0  0  0
   -0.1676    2.6652   -0.8801 O   0  0  0  0  0  0  0  0  0  0  0  0
   -1.0428    2.1243    1.1319 O   0  0  0  0  0  0  0  0  0  0  0  0
   -3.6456   -2.0783    1.5411 H   0  0  0  0  0  0  0  0  0  0  0  0
   -3.8657   -3.2598    0.2235 H   0  0  0  0  0  0  0  0  0  0  0  0
   -4.6308   -0.2144    0.0455 H   0  0  0  0  0  0  0  0  0  0  0  0
   -4.8656   -1.3909   -1.2731 H   0  0  0  0  0  0  0  0  0  0  0  0
   -2.3286   -1.8926   -1.3304 H   0  0  0  0  0  0  0  0  0  0  0  0
   -2.1110   -0.1646    1.0941 H   0  0  0  0  0  0  0  0  0  0  0  0
   -1.0992    0.3188   -1.6759 H   0  0  0  0  0  0  0  0  0  0  0  0
   -2.3749    1.2927   -0.9050 H   0  0  0  0  0  0  0  0  0  0  0  0
    1.6965    1.8385    0.3848 H   0  0  0  0  0  0  0  0  0  0  0  0
    1.8567   -0.0430    1.8800 H   0  0  0  0  0  0  0  0  0  0  0  0
    0.3215   -0.5272    1.5730 H   0  0  0  0  0  0  0  0  0  0  0  0
    1.2366    0.5664   -1.8270 H   0  0  0  0  0  0  0  0  0  0  0  0
    0.9201   -0.8888   -0.8718 H   0  0  0  0  0  0  0  0  0  0  0  0
    3.3318   -0.4713   -1.8501 H   0  0  0  0  0  0  0  0  0  0  0  0
    3.5394    0.7299   -0.5795 H   0  0  0  0  0  0  0  0  0  0  0  0
    3.1149   -1.0344    1.1822 H   0  0  0  0  0  0  0  0  0  0  0  0
    2.8177   -2.2378   -0.0811 H   0  0  0  0  0  0  0  0  0  0  0  0
    5.1660   -2.4063    0.7856 H   0  0  0  0  0  0  0  0  0  0  0  0
    5.1922   -1.9449   -0.9186 H   0  0  0  0  0  0  0  0  0  0  0  0
    5.4872   -0.7303    0.3287 H   0  0  0  0  0  0  0  0  0  0  0  0
   -0.7379    3.4259   -0.6315 H   0  0  0  0  0  0  0  0  0  0  0  0
   -0.4661    2.0968    1.9372 H   0  0  0  0  0  0  0  0  0  0  0  0
  1 15  1  0  0  0  0
  2 17  1  0  0  0  0
  2  1  1  0  0  0  0
  3  2  1  0  0  0  0
  3  4  1  0  0  0  0
  3  1  1  0  0  0  0
  4 20  1  0  0  0  0
  5  6  1  0  0  0  0
  5  4  1  0  0  0  0
  6  7  1  0  0  0  0
  6 14  1  0  0  0  0
  7 23  1  1  0  0  0
  7  8  1  0  0  0  0
  8 24  1  0  0  0  0
  9 10  1  0  0  0  0
  9  7  1  0  0  0  0
 10 29  1  0  0  0  0
 10 11  1  0  0  0  0
 11 30  1  0  0  0  0
 12 11  1  0  0  0  0
 12 34  1  0  0  0  0
 12 32  1  0  0  0  0
 13 35  1  0  0  0  0
 13  6  1  0  0  0  0
 14 36  1  0  0  0  0
 16  1  1  0  0  0  0
 18  2  1  0  0  0  0
 19  3  1  0  0  0  0
 21  5  1  0  0  0  0
 22  5  1  0  0  0  0
 25  8  1  0  0  0  0
 26  9  1  0  0  0  0
 27  9  1  0  0  0  0
 28 10  1  0  0  0  0
 31 11  1  0  0  0  0
 33 12  1  0  0  0  0
M  END
