omegapdb_1z1r_03.log
 OpenBabel10161801213D
Gaussian 16 # PM6 Opt
 66 68  0  0  1  0  0  0  0  0999 V2000
    0.3731    0.5833   -0.2292 C   0  0  2  0  0  0  0  0  0  0  0  0
    0.3896   -0.4088   -1.4142 C   0  0  0  0  0  0  0  0  0  0  0  0
   -0.5904   -1.5240   -1.1871 C   0  0  0  0  0  0  0  0  0  0  0  0
   -1.7340   -1.6304   -1.9915 C   0  0  0  0  0  0  0  0  0  0  0  0
   -2.7399   -2.5467   -1.6751 C   0  0  0  0  0  0  0  0  0  0  0  0
   -2.5820   -3.3422   -0.5337 C   0  0  0  0  0  0  0  0  0  0  0  0
   -1.3996   -3.3265    0.2252 C   0  0  0  0  0  0  0  0  0  0  0  0
   -0.4011   -2.4198   -0.1177 C   0  0  0  0  0  0  0  0  0  0  0  0
   -3.5666   -4.2175   -0.0903 O   0  0  0  0  0  0  0  0  0  0  0  0
   -4.8901   -3.6393    0.0930 C   0  0  0  0  0  0  0  0  0  0  0  0
   -4.8698   -2.5386    1.1533 C   0  0  0  0  0  0  0  0  0  0  0  0
   -4.8067   -1.1270    0.5570 C   0  0  0  0  0  0  0  0  0  0  0  0
   -4.3926   -0.1179    1.6042 C   0  0  0  0  0  0  0  0  0  0  0  0
   -4.6010   -0.2326    2.7967 O   0  0  0  0  0  0  0  0  0  0  0  0
   -3.6748    1.0304    1.1911 N   0  0  0  0  0  0  0  0  0  0  0  0
   -3.4593    1.4529   -0.2001 C   0  0  2  0  0  0  0  0  0  0  0  0
   -1.9566    1.4712   -0.6074 C   0  0  0  0  0  0  0  0  0  0  0  0
   -1.6427    2.0581   -1.6460 O   0  0  0  0  0  0  0  0  0  0  0  0
   -1.0320    0.8575    0.2063 N   0  0  0  0  0  0  0  0  0  0  0  0
   -4.0591    2.8457   -0.4623 C   0  0  0  0  0  0  0  0  0  0  0  0
   -3.3387    3.9249    0.3298 C   0  0  0  0  0  0  0  0  0  0  0  0
   -3.5793    4.1619    1.5023 O   0  0  0  0  0  0  0  0  0  0  0  0
   -2.3816    4.6524   -0.3667 N   0  0  0  0  0  0  0  0  0  0  0  0
    1.0803    1.9339   -0.5435 C   0  0  2  0  0  0  0  0  0  0  0  0
    1.0965    2.2096   -1.9474 O   0  0  0  0  0  0  0  0  0  0  0  0
    2.5619    2.0067   -0.1064 C   0  0  0  0  0  0  0  0  0  0  0  0
    3.4774    1.0742   -0.7958 N   0  0  0  0  0  0  0  0  0  0  0  0
    3.7582   -0.4622   -0.0739 S   0  0  0  0  0  0  0  0  0  0  0  0
    2.9007   -0.5367    1.1045 O   0  0  0  0  0  0  0  0  0  0  0  0
    3.5744   -1.4284   -1.1407 O   0  0  0  0  0  0  0  0  0  0  0  0
    5.4095   -0.4126    0.4115 C   0  0  0  0  0  0  0  0  0  0  0  0
    5.7426   -0.0189    1.7122 C   0  0  0  0  0  0  0  0  0  0  0  0
    7.0830    0.0236    2.1055 C   0  0  0  0  0  0  0  0  0  0  0  0
    8.0874   -0.3305    1.1974 C   0  0  0  0  0  0  0  0  0  0  0  0
    7.7538   -0.7316   -0.1010 C   0  0  0  0  0  0  0  0  0  0  0  0
    6.4130   -0.7742   -0.4939 C   0  0  0  0  0  0  0  0  0  0  0  0
    0.8870    0.1024    0.6590 H   0  0  0  0  0  0  0  0  0  0  0  0
    0.1749    0.1313   -2.3622 H   0  0  0  0  0  0  0  0  0  0  0  0
    1.4117   -0.8270   -1.5613 H   0  0  0  0  0  0  0  0  0  0  0  0
   -1.8468   -0.9880   -2.8649 H   0  0  0  0  0  0  0  0  0  0  0  0
   -3.6213   -2.6460   -2.3011 H   0  0  0  0  0  0  0  0  0  0  0  0
   -1.2885   -4.0087    1.0659 H   0  0  0  0  0  0  0  0  0  0  0  0
    0.5266   -2.3868    0.4592 H   0  0  0  0  0  0  0  0  0  0  0  0
   -5.4456   -4.5357    0.4335 H   0  0  0  0  0  0  0  0  0  0  0  0
   -5.2816   -3.3088   -0.8816 H   0  0  0  0  0  0  0  0  0  0  0  0
   -4.0008   -2.7064    1.8305 H   0  0  0  0  0  0  0  0  0  0  0  0
   -5.7554   -2.6221    1.8169 H   0  0  0  0  0  0  0  0  0  0  0  0
   -5.8030   -0.8385    0.1594 H   0  0  0  0  0  0  0  0  0  0  0  0
   -4.1124   -1.1125   -0.3105 H   0  0  0  0  0  0  0  0  0  0  0  0
   -3.5419    1.7686    1.9045 H   0  0  0  0  0  0  0  0  0  0  0  0
   -3.9398    0.7192   -0.9116 H   0  0  0  0  0  0  0  0  0  0  0  0
   -1.3419    0.3285    1.0265 H   0  0  0  0  0  0  0  0  0  0  0  0
   -5.1330    2.8601   -0.1717 H   0  0  0  0  0  0  0  0  0  0  0  0
   -4.0389    3.0557   -1.5542 H   0  0  0  0  0  0  0  0  0  0  0  0
   -2.0253    4.3433   -1.2634 H   0  0  0  0  0  0  0  0  0  0  0  0
   -1.8375    5.3525    0.1156 H   0  0  0  0  0  0  0  0  0  0  0  0
    0.5270    2.7667   -0.0402 H   0  0  0  0  0  0  0  0  0  0  0  0
    0.1498    2.2379   -2.2847 H   0  0  0  0  0  0  0  0  0  0  0  0
    2.9270    3.0409   -0.3360 H   0  0  0  0  0  0  0  0  0  0  0  0
    2.6268    1.8778    0.9990 H   0  0  0  0  0  0  0  0  0  0  0  0
    3.3045    1.0937   -1.8174 H   0  0  0  0  0  0  0  0  0  0  0  0
    4.9554    0.2449    2.4271 H   0  0  0  0  0  0  0  0  0  0  0  0
    7.3445    0.3291    3.1179 H   0  0  0  0  0  0  0  0  0  0  0  0
    9.1341   -0.2965    1.5041 H   0  0  0  0  0  0  0  0  0  0  0  0
    8.5366   -1.0128   -0.8046 H   0  0  0  0  0  0  0  0  0  0  0  0
    6.1521   -1.1011   -1.5065 H   0  0  0  0  0  0  0  0  0  0  0  0
  1 19  1  0  0  0  0
  1 37  1  1  0  0  0
  2  3  1  0  0  0  0
  2  1  1  0  0  0  0
  3  8  2  0  0  0  0
  4  5  2  0  0  0  0
  4  3  1  0  0  0  0
  5  6  1  0  0  0  0
  6  9  1  0  0  0  0
  6  7  2  0  0  0  0
  7 42  1  0  0  0  0
  8  7  1  0  0  0  0
  8 43  1  0  0  0  0
  9 10  1  0  0  0  0
 10 44  1  0  0  0  0
 10 11  1  0  0  0  0
 11 47  1  0  0  0  0
 11 46  1  0  0  0  0
 12 11  1  0  0  0  0
 12 13  1  0  0  0  0
 13 14  2  0  0  0  0
 15 13  1  0  0  0  0
 15 50  1  0  0  0  0
 16 51  1  6  0  0  0
 16 15  1  0  0  0  0
 17 16  1  0  0  0  0
 17 19  1  0  0  0  0
 18 17  2  0  0  0  0
 19 52  1  0  0  0  0
 20 16  1  0  0  0  0
 20 53  1  0  0  0  0
 20 21  1  0  0  0  0
 21 22  2  0  0  0  0
 23 56  1  0  0  0  0
 23 21  1  0  0  0  0
 24  1  1  0  0  0  0
 24 26  1  0  0  0  0
 24 57  1  1  0  0  0
 25 24  1  0  0  0  0
 26 60  1  0  0  0  0
 27 26  1  0  0  0  0
 27 28  1  0  0  0  0
 28 31  1  0  0  0  0
 28 29  2  0  0  0  0
 30 28  2  0  0  0  0
 31 32  2  0  0  0  0
 32 33  1  0  0  0  0
 32 62  1  0  0  0  0
 33 63  1  0  0  0  0
 34 64  1  0  0  0  0
 34 33  2  0  0  0  0
 35 34  1  0  0  0  0
 36 35  2  0  0  0  0
 36 31  1  0  0  0  0
 38  2  1  0  0  0  0
 39  2  1  0  0  0  0
 40  4  1  0  0  0  0
 41  5  1  0  0  0  0
 45 10  1  0  0  0  0
 48 12  1  0  0  0  0
 49 12  1  0  0  0  0
 54 20  1  0  0  0  0
 55 23  1  0  0  0  0
 58 25  1  0  0  0  0
 59 26  1  0  0  0  0
 61 27  1  0  0  0  0
 65 35  1  0  0  0  0
 66 36  1  0  0  0  0
M  END
