omegapdb_1v2k_19.log
 OpenBabel10161801213D
Gaussian 16 # PM6 Opt
 61 65  0  0  0  0  0  0  0  0999 V2000
   -6.0569   -3.4030    0.5480 N   0  0  0  0  0  0  0  0  0  0  0  0
   -6.7421   -2.2640    0.8385 C   0  0  0  0  0  0  0  0  0  0  0  0
   -6.4944   -1.0373    0.2168 C   0  0  0  0  0  0  0  0  0  0  0  0
   -5.4929   -0.9591   -0.7817 C   0  0  0  0  0  0  0  0  0  0  0  0
   -4.7765   -2.1413   -1.0853 C   0  0  0  0  0  0  0  0  0  0  0  0
   -5.0920   -3.3226   -0.4088 C   0  0  0  0  0  0  0  0  0  0  0  0
   -5.3080    0.2328   -1.5298 N   0  0  0  0  0  0  0  0  0  0  0  0
   -4.0412    0.3769   -2.3121 C   0  0  0  0  0  0  0  0  0  0  0  0
   -2.8646    0.8169   -1.4322 C   0  0  0  0  0  0  0  0  0  0  0  0
   -3.2056    2.1054   -0.6703 C   0  0  0  0  0  0  0  0  0  0  0  0
   -4.5378    1.9985    0.0891 C   0  0  0  0  0  0  0  0  0  0  0  0
   -5.6534    1.5224   -0.8585 C   0  0  0  0  0  0  0  0  0  0  0  0
   -2.0554    2.5531    0.2318 C   0  0  0  0  0  0  0  0  0  0  0  0
   -1.4585    3.5929   -0.0201 O   0  0  0  0  0  0  0  0  0  0  0  0
   -1.7376    1.8858    1.4356 N   0  0  0  0  0  0  0  0  0  0  0  0
   -0.5235    2.3589    2.1534 C   0  0  0  0  0  0  0  0  0  0  0  0
    0.7182    1.5160    1.7836 C   0  0  0  0  0  0  0  0  0  0  0  0
    0.4214    0.0591    1.6521 N   0  0  0  0  0  0  0  0  0  0  0  0
   -0.8685   -0.3198    2.2828 C   0  0  0  0  0  0  0  0  0  0  0  0
   -2.0788    0.4666    1.7215 C   0  0  0  0  0  0  0  0  0  0  0  0
    0.6681   -0.6596    0.0924 S   0  0  0  0  0  0  0  0  0  0  0  0
    0.4157   -2.0746    0.2805 O   0  0  0  0  0  0  0  0  0  0  0  0
   -0.1234    0.0488   -0.9013 O   0  0  0  0  0  0  0  0  0  0  0  0
    2.3481   -0.3748   -0.1996 C   0  0  0  0  0  0  0  0  0  0  0  0
    3.3059   -1.1168    0.4484 C   0  0  0  0  0  0  0  0  0  0  0  0
    4.6926   -0.8815    0.1970 C   0  0  0  0  0  0  0  0  0  0  0  0
    5.0650    0.1255   -0.7355 C   0  0  0  0  0  0  0  0  0  0  0  0
    4.0437    0.8732   -1.4029 C   0  0  0  0  0  0  0  0  0  0  0  0
    2.7196    0.6256   -1.1426 C   0  0  0  0  0  0  0  0  0  0  0  0
    6.4532    0.3657   -0.9871 C   0  0  0  0  0  0  0  0  0  0  0  0
    7.3893   -0.3847   -0.3232 C   0  0  0  0  0  0  0  0  0  0  0  0
    7.0370   -1.4004    0.6117 C   0  0  0  0  0  0  0  0  0  0  0  0
    5.7104   -1.6399    0.8625 C   0  0  0  0  0  0  0  0  0  0  0  0
    9.0663   -0.1098   -0.6120 Cl  0  0  0  0  0  0  0  0  0  0  0  0
   -7.5175   -2.3576    1.6081 H   0  0  0  0  0  0  0  0  0  0  0  0
   -7.0810   -0.1635    0.4861 H   0  0  0  0  0  0  0  0  0  0  0  0
   -3.9943   -2.1433   -1.8408 H   0  0  0  0  0  0  0  0  0  0  0  0
   -4.5553   -4.2547   -0.6248 H   0  0  0  0  0  0  0  0  0  0  0  0
   -3.8057   -0.5807   -2.8283 H   0  0  0  0  0  0  0  0  0  0  0  0
   -4.2350    1.1221   -3.1162 H   0  0  0  0  0  0  0  0  0  0  0  0
   -2.5905   -0.0025   -0.7267 H   0  0  0  0  0  0  0  0  0  0  0  0
   -1.9433    0.9573   -2.0397 H   0  0  0  0  0  0  0  0  0  0  0  0
   -3.3122    2.9308   -1.4316 H   0  0  0  0  0  0  0  0  0  0  0  0
   -4.8042    2.9807    0.5249 H   0  0  0  0  0  0  0  0  0  0  0  0
   -4.4552    1.3018    0.9445 H   0  0  0  0  0  0  0  0  0  0  0  0
   -5.8349    2.2739   -1.6599 H   0  0  0  0  0  0  0  0  0  0  0  0
   -6.6148    1.4168   -0.3081 H   0  0  0  0  0  0  0  0  0  0  0  0
   -0.7263    2.3104    3.2450 H   0  0  0  0  0  0  0  0  0  0  0  0
   -0.3410    3.4333    1.9029 H   0  0  0  0  0  0  0  0  0  0  0  0
    1.1720    1.9216    0.8526 H   0  0  0  0  0  0  0  0  0  0  0  0
    1.4865    1.6191    2.5854 H   0  0  0  0  0  0  0  0  0  0  0  0
   -0.7752   -0.1509    3.3807 H   0  0  0  0  0  0  0  0  0  0  0  0
   -1.0321   -1.4181    2.1592 H   0  0  0  0  0  0  0  0  0  0  0  0
   -2.4593   -0.0382    0.7946 H   0  0  0  0  0  0  0  0  0  0  0  0
   -2.9095    0.4512    2.4630 H   0  0  0  0  0  0  0  0  0  0  0  0
    3.0275   -1.9016    1.1623 H   0  0  0  0  0  0  0  0  0  0  0  0
    4.3378    1.6372   -2.1232 H   0  0  0  0  0  0  0  0  0  0  0  0
    1.9313    1.1856   -1.6625 H   0  0  0  0  0  0  0  0  0  0  0  0
    6.7425    1.1377   -1.7009 H   0  0  0  0  0  0  0  0  0  0  0  0
    7.8252   -1.9680    1.1081 H   0  0  0  0  0  0  0  0  0  0  0  0
    5.4089   -2.4130    1.5718 H   0  0  0  0  0  0  0  0  0  0  0  0
  1  2  1  0  0  0  0
  2 35  1  0  0  0  0
  3 36  1  0  0  0  0
  3  2  2  0  0  0  0
  4  3  1  0  0  0  0
  5  4  2  0  0  0  0
  5  6  1  0  0  0  0
  6  1  2  0  0  0  0
  7 12  1  0  0  0  0
  7  4  1  0  0  0  0
  8  7  1  0  0  0  0
  8  9  1  0  0  0  0
  9 41  1  0  0  0  0
  9 10  1  0  0  0  0
 10 11  1  0  0  0  0
 10 13  1  0  0  0  0
 11 44  1  0  0  0  0
 11 45  1  0  0  0  0
 12 47  1  0  0  0  0
 12 11  1  0  0  0  0
 13 15  1  0  0  0  0
 14 13  2  0  0  0  0
 15 20  1  0  0  0  0
 15 16  1  0  0  0  0
 16 48  1  0  0  0  0
 17 16  1  0  0  0  0
 17 51  1  0  0  0  0
 18 17  1  0  0  0  0
 18 19  1  0  0  0  0
 19 52  1  0  0  0  0
 20 19  1  0  0  0  0
 20 55  1  0  0  0  0
 21 22  2  0  0  0  0
 21 18  1  0  0  0  0
 23 21  2  0  0  0  0
 24 21  1  0  0  0  0
 24 25  2  0  0  0  0
 25 56  1  0  0  0  0
 26 25  1  0  0  0  0
 26 33  2  0  0  0  0
 27 26  1  0  0  0  0
 28 29  2  0  0  0  0
 28 27  1  0  0  0  0
 29 24  1  0  0  0  0
 30 27  2  0  0  0  0
 30 31  1  0  0  0  0
 31 32  2  0  0  0  0
 32 33  1  0  0  0  0
 32 60  1  0  0  0  0
 33 61  1  0  0  0  0
 34 31  1  0  0  0  0
 37  5  1  0  0  0  0
 38  6  1  0  0  0  0
 39  8  1  0  0  0  0
 40  8  1  0  0  0  0
 42  9  1  0  0  0  0
 43 10  1  0  0  0  0
 46 12  1  0  0  0  0
 49 16  1  0  0  0  0
 50 17  1  0  0  0  0
 53 19  1  0  0  0  0
 54 20  1  0  0  0  0
 57 28  1  0  0  0  0
 58 29  1  0  0  0  0
 59 30  1  0  0  0  0
M  END
