omegapdb_1xom_02.log
 OpenBabel10161801213D
Gaussian 16 # PM6 Opt
 50 52  0  0  1  0  0  0  0  0999 V2000
   -5.6821   -2.7820   -0.2871 O   0  0  0  0  0  0  0  0  0  0  0  0
   -5.5364   -1.4320   -0.0428 C   0  0  0  0  0  0  0  0  0  0  0  0
   -6.5135   -0.7583    0.1725 O   0  0  0  0  0  0  0  0  0  0  0  0
   -4.0673   -1.0696   -0.1043 C   0  0  1  0  0  0  0  0  0  0  0  0
   -3.8489   -0.0267   -1.2153 C   0  0  0  0  0  0  0  0  0  0  0  0
   -2.3794    0.3973   -1.2756 C   0  0  0  0  0  0  0  0  0  0  0  0
   -1.8590    0.9223    0.0907 C   0  0  2  0  0  0  0  0  0  0  0  0
   -2.1523   -0.0998    1.2232 C   0  0  0  0  0  0  0  0  0  0  0  0
   -3.6246   -0.5170    1.2627 C   0  0  0  0  0  0  0  0  0  0  0  0
   -2.5829    2.1692    0.4101 C   0  0  0  0  0  0  0  0  0  0  0  0
   -3.1698    3.1314    0.6611 N   0  0  0  0  0  0  0  0  0  0  0  0
   -0.3543    1.1716   -0.0084 C   0  0  0  0  0  0  0  0  0  0  0  0
    0.1986    2.4481    0.0960 C   0  0  0  0  0  0  0  0  0  0  0  0
    1.5846    2.6403   -0.0101 C   0  0  0  0  0  0  0  0  0  0  0  0
    2.4291    1.5550   -0.2280 C   0  0  0  0  0  0  0  0  0  0  0  0
    3.8037    1.6337   -0.3616 O   0  0  0  0  0  0  0  0  0  0  0  0
    4.4196    2.9323   -0.1793 C   0  0  0  0  0  0  0  0  0  0  0  0
    1.8776    0.2439   -0.3356 C   0  0  0  0  0  0  0  0  0  0  0  0
    0.4946    0.0706   -0.2220 C   0  0  0  0  0  0  0  0  0  0  0  0
    2.5400   -0.9259   -0.5923 O   0  0  0  0  0  0  0  0  0  0  0  0
    4.0009   -1.0027   -0.4504 C   0  0  0  0  0  0  0  0  0  0  0  0
    4.3055   -2.4007   -1.0108 C   0  0  0  0  0  0  0  0  0  0  0  0
    5.2125   -3.0886    0.0208 C   0  0  0  0  0  0  0  0  0  0  0  0
    4.9859   -2.3640    1.3618 C   0  0  0  0  0  0  0  0  0  0  0  0
    4.4026   -0.9796    1.0322 C   0  0  0  0  0  0  0  0  0  0  0  0
   -6.6288   -3.0817   -0.2603 H   0  0  0  0  0  0  0  0  0  0  0  0
   -3.4750   -1.9929   -0.3406 H   0  0  0  0  0  0  0  0  0  0  0  0
   -4.4991    0.8568   -1.0375 H   0  0  0  0  0  0  0  0  0  0  0  0
   -4.1597   -0.4392   -2.1952 H   0  0  0  0  0  0  0  0  0  0  0  0
   -1.7526   -0.4572   -1.6010 H   0  0  0  0  0  0  0  0  0  0  0  0
   -2.2421    1.1781   -2.0502 H   0  0  0  0  0  0  0  0  0  0  0  0
   -1.5123   -0.9945    1.0852 H   0  0  0  0  0  0  0  0  0  0  0  0
   -1.8541    0.3319    2.1994 H   0  0  0  0  0  0  0  0  0  0  0  0
   -3.7765   -1.2789    2.0521 H   0  0  0  0  0  0  0  0  0  0  0  0
   -4.2640    0.3464    1.5467 H   0  0  0  0  0  0  0  0  0  0  0  0
   -0.4272    3.3257    0.2605 H   0  0  0  0  0  0  0  0  0  0  0  0
    1.9816    3.6494    0.0741 H   0  0  0  0  0  0  0  0  0  0  0  0
    5.4825    2.6929   -0.3123 H   0  0  0  0  0  0  0  0  0  0  0  0
    4.2245    3.3107    0.8280 H   0  0  0  0  0  0  0  0  0  0  0  0
    4.0757    3.6269   -0.9513 H   0  0  0  0  0  0  0  0  0  0  0  0
    0.0970   -0.9417   -0.3062 H   0  0  0  0  0  0  0  0  0  0  0  0
    4.4459   -0.1798   -1.0447 H   0  0  0  0  0  0  0  0  0  0  0  0
    4.7717   -2.3493   -2.0067 H   0  0  0  0  0  0  0  0  0  0  0  0
    3.3551   -2.9586   -1.1427 H   0  0  0  0  0  0  0  0  0  0  0  0
    6.2709   -3.0155   -0.2853 H   0  0  0  0  0  0  0  0  0  0  0  0
    4.9855   -4.1642    0.1018 H   0  0  0  0  0  0  0  0  0  0  0  0
    4.2831   -2.9358    1.9935 H   0  0  0  0  0  0  0  0  0  0  0  0
    5.9230   -2.2806    1.9352 H   0  0  0  0  0  0  0  0  0  0  0  0
    5.1328   -0.1747    1.2217 H   0  0  0  0  0  0  0  0  0  0  0  0
    3.5265   -0.7532    1.6664 H   0  0  0  0  0  0  0  0  0  0  0  0
  1 26  1  0  0  0  0
  1  2  1  0  0  0  0
  2  3  2  0  0  0  0
  4 27  1  6  0  0  0
  4  2  1  0  0  0  0
  4  9  1  0  0  0  0
  5 28  1  0  0  0  0
  5  4  1  0  0  0  0
  6  5  1  0  0  0  0
  6  7  1  0  0  0  0
  7 12  1  6  0  0  0
  7 10  1  0  0  0  0
  7  8  1  0  0  0  0
  8  9  1  0  0  0  0
  8 33  1  0  0  0  0
  9 35  1  0  0  0  0
  9 34  1  0  0  0  0
 10 11  3  0  0  0  0
 12 13  1  0  0  0  0
 13 36  1  0  0  0  0
 14 37  1  0  0  0  0
 14 13  2  0  0  0  0
 15 14  1  0  0  0  0
 16 15  1  0  0  0  0
 16 17  1  0  0  0  0
 17 39  1  0  0  0  0
 18 15  2  0  0  0  0
 18 19  1  0  0  0  0
 19 12  2  0  0  0  0
 20 21  1  0  0  0  0
 20 18  1  0  0  0  0
 21 25  1  0  0  0  0
 22 21  1  0  0  0  0
 22 23  1  0  0  0  0
 23 46  1  0  0  0  0
 23 24  1  0  0  0  0
 24 48  1  0  0  0  0
 24 47  1  0  0  0  0
 25 49  1  0  0  0  0
 25 24  1  0  0  0  0
 25 50  1  0  0  0  0
 29  5  1  0  0  0  0
 30  6  1  0  0  0  0
 31  6  1  0  0  0  0
 32  8  1  0  0  0  0
 38 17  1  0  0  0  0
 40 17  1  0  0  0  0
 41 19  1  0  0  0  0
 42 21  1  0  0  0  0
 43 22  1  0  0  0  0
 44 22  1  0  0  0  0
 45 23  1  0  0  0  0
M  END
