omegapdb_1z1r_24.log
 OpenBabel10161801213D
Gaussian 16 # PM6 Opt
 66 68  0  0  1  0  0  0  0  0999 V2000
    1.0353   -1.1753    0.7324 C   0  0  2  0  0  0  0  0  0  0  0  0
    0.8924   -0.4763    2.1063 C   0  0  0  0  0  0  0  0  0  0  0  0
   -0.2316    0.5216    2.0801 C   0  0  0  0  0  0  0  0  0  0  0  0
   -1.5006    0.1635    2.5593 C   0  0  0  0  0  0  0  0  0  0  0  0
   -2.5834    1.0343    2.4234 C   0  0  0  0  0  0  0  0  0  0  0  0
   -2.3735    2.2725    1.8027 C   0  0  0  0  0  0  0  0  0  0  0  0
   -1.0989    2.6763    1.3683 C   0  0  0  0  0  0  0  0  0  0  0  0
   -0.0328    1.7927    1.5123 C   0  0  0  0  0  0  0  0  0  0  0  0
   -3.3761    3.2105    1.6189 O   0  0  0  0  0  0  0  0  0  0  0  0
   -4.6561    2.7238    1.1252 C   0  0  0  0  0  0  0  0  0  0  0  0
   -4.5381    2.3510   -0.3507 C   0  0  0  0  0  0  0  0  0  0  0  0
   -4.2919    0.8567   -0.5872 C   0  0  0  0  0  0  0  0  0  0  0  0
   -3.6810    0.6381   -1.9540 C   0  0  0  0  0  0  0  0  0  0  0  0
   -3.8852    1.3502   -2.9209 O   0  0  0  0  0  0  0  0  0  0  0  0
   -2.8684   -0.4985   -2.1609 N   0  0  0  0  0  0  0  0  0  0  0  0
   -2.3587   -1.3819   -1.1026 C   0  0  2  0  0  0  0  0  0  0  0  0
   -0.8360   -1.1289   -0.9179 C   0  0  0  0  0  0  0  0  0  0  0  0
   -0.1708   -0.5369   -1.7543 O   0  0  0  0  0  0  0  0  0  0  0  0
   -0.2937   -1.6304    0.2535 N   0  0  0  0  0  0  0  0  0  0  0  0
   -2.6187   -2.8539   -1.4832 C   0  0  0  0  0  0  0  0  0  0  0  0
   -2.7224   -3.7219   -0.2476 C   0  0  0  0  0  0  0  0  0  0  0  0
   -2.6050   -3.2959    0.8951 O   0  0  0  0  0  0  0  0  0  0  0  0
   -2.9825   -5.0686   -0.4577 N   0  0  0  0  0  0  0  0  0  0  0  0
    1.9990   -2.3900    0.7818 C   0  0  2  0  0  0  0  0  0  0  0  0
    1.6867   -3.2905    1.8475 O   0  0  0  0  0  0  0  0  0  0  0  0
    3.4824   -1.9627    0.9157 C   0  0  0  0  0  0  0  0  0  0  0  0
    3.9323   -1.3963   -0.3736 N   0  0  0  0  0  0  0  0  0  0  0  0
    4.7870    0.1065   -0.3674 S   0  0  0  0  0  0  0  0  0  0  0  0
    5.7616   -0.0354   -1.4255 O   0  0  0  0  0  0  0  0  0  0  0  0
    5.2188    0.3533    0.9977 O   0  0  0  0  0  0  0  0  0  0  0  0
    3.5869    1.2776   -0.7729 C   0  0  0  0  0  0  0  0  0  0  0  0
    2.5930    1.0076   -1.7176 C   0  0  0  0  0  0  0  0  0  0  0  0
    1.6291    1.9785   -2.0159 C   0  0  0  0  0  0  0  0  0  0  0  0
    1.6760    3.2251   -1.3882 C   0  0  0  0  0  0  0  0  0  0  0  0
    2.6789    3.5015   -0.4487 C   0  0  0  0  0  0  0  0  0  0  0  0
    3.6286    2.5271   -0.1385 C   0  0  0  0  0  0  0  0  0  0  0  0
    1.4427   -0.4350   -0.0176 H   0  0  0  0  0  0  0  0  0  0  0  0
    1.8500    0.0245    2.3627 H   0  0  0  0  0  0  0  0  0  0  0  0
    0.7285   -1.2294    2.9055 H   0  0  0  0  0  0  0  0  0  0  0  0
   -1.6542   -0.8070    3.0329 H   0  0  0  0  0  0  0  0  0  0  0  0
   -3.5637    0.7616    2.8035 H   0  0  0  0  0  0  0  0  0  0  0  0
   -0.9696    3.6592    0.9206 H   0  0  0  0  0  0  0  0  0  0  0  0
    0.9586    2.0823    1.1579 H   0  0  0  0  0  0  0  0  0  0  0  0
   -5.2795    3.6274    1.2772 H   0  0  0  0  0  0  0  0  0  0  0  0
   -5.0250    1.9075    1.7649 H   0  0  0  0  0  0  0  0  0  0  0  0
   -5.4447    2.6704   -0.9050 H   0  0  0  0  0  0  0  0  0  0  0  0
   -3.7125    2.9491   -0.8031 H   0  0  0  0  0  0  0  0  0  0  0  0
   -5.2468    0.2934   -0.5249 H   0  0  0  0  0  0  0  0  0  0  0  0
   -3.6428    0.4393    0.2147 H   0  0  0  0  0  0  0  0  0  0  0  0
   -2.3371   -0.5209   -3.0417 H   0  0  0  0  0  0  0  0  0  0  0  0
   -2.8807   -1.1538   -0.1242 H   0  0  0  0  0  0  0  0  0  0  0  0
   -0.8637   -2.1652    0.9237 H   0  0  0  0  0  0  0  0  0  0  0  0
   -3.5614   -2.9184   -2.0749 H   0  0  0  0  0  0  0  0  0  0  0  0
   -1.8266   -3.2263   -2.1669 H   0  0  0  0  0  0  0  0  0  0  0  0
   -3.0594   -5.4878   -1.3664 H   0  0  0  0  0  0  0  0  0  0  0  0
   -3.0397   -5.6954    0.3337 H   0  0  0  0  0  0  0  0  0  0  0  0
    1.8523   -3.0376   -0.1173 H   0  0  0  0  0  0  0  0  0  0  0  0
    1.6829   -2.8347    2.7154 H   0  0  0  0  0  0  0  0  0  0  0  0
    3.6181   -1.2322    1.7472 H   0  0  0  0  0  0  0  0  0  0  0  0
    4.0782   -2.8576    1.2129 H   0  0  0  0  0  0  0  0  0  0  0  0
    4.2676   -2.1210   -1.0209 H   0  0  0  0  0  0  0  0  0  0  0  0
    2.5374    0.0359   -2.2204 H   0  0  0  0  0  0  0  0  0  0  0  0
    0.8316    1.7410   -2.7241 H   0  0  0  0  0  0  0  0  0  0  0  0
    0.9289    3.9839   -1.6260 H   0  0  0  0  0  0  0  0  0  0  0  0
    2.7168    4.4750    0.0380 H   0  0  0  0  0  0  0  0  0  0  0  0
    4.4010    2.7393    0.6093 H   0  0  0  0  0  0  0  0  0  0  0  0
  1 37  1  6  0  0  0
  1 24  1  0  0  0  0
  1  2  1  0  0  0  0
  2 38  1  0  0  0  0
  2 39  1  0  0  0  0
  3  2  1  0  0  0  0
  3  4  2  0  0  0  0
  4 40  1  0  0  0  0
  5  4  1  0  0  0  0
  5 41  1  0  0  0  0
  6  5  2  0  0  0  0
  7  8  2  0  0  0  0
  7  6  1  0  0  0  0
  8  3  1  0  0  0  0
  9  6  1  0  0  0  0
 10 44  1  0  0  0  0
 10  9  1  0  0  0  0
 10 45  1  0  0  0  0
 11 10  1  0  0  0  0
 12 48  1  0  0  0  0
 12 11  1  0  0  0  0
 12 49  1  0  0  0  0
 13 12  1  0  0  0  0
 14 13  2  0  0  0  0
 15 13  1  0  0  0  0
 15 16  1  0  0  0  0
 16 17  1  0  0  0  0
 16 51  1  1  0  0  0
 17 19  1  0  0  0  0
 18 17  2  0  0  0  0
 19  1  1  0  0  0  0
 19 52  1  0  0  0  0
 20 16  1  0  0  0  0
 20 21  1  0  0  0  0
 21 22  2  0  0  0  0
 23 21  1  0  0  0  0
 23 56  1  0  0  0  0
 24 57  1  6  0  0  0
 24 26  1  0  0  0  0
 24 25  1  0  0  0  0
 25 58  1  0  0  0  0
 26 60  1  0  0  0  0
 26 59  1  0  0  0  0
 27 28  1  0  0  0  0
 27 26  1  0  0  0  0
 28 30  2  0  0  0  0
 29 28  2  0  0  0  0
 31 28  1  0  0  0  0
 31 36  2  0  0  0  0
 32 31  1  0  0  0  0
 33 32  2  0  0  0  0
 33 34  1  0  0  0  0
 34 35  2  0  0  0  0
 35 36  1  0  0  0  0
 35 65  1  0  0  0  0
 36 66  1  0  0  0  0
 42  7  1  0  0  0  0
 43  8  1  0  0  0  0
 46 11  1  0  0  0  0
 47 11  1  0  0  0  0
 50 15  1  0  0  0  0
 53 20  1  0  0  0  0
 54 20  1  0  0  0  0
 55 23  1  0  0  0  0
 61 27  1  0  0  0  0
 62 32  1  0  0  0  0
 63 33  1  0  0  0  0
 64 34  1  0  0  0  0
M  END
