omegapdb_1z1r_06.log
 OpenBabel10161801213D
Gaussian 16 # PM6 Opt
 66 68  0  0  1  0  0  0  0  0999 V2000
    0.4678    0.1812   -0.8072 C   0  0  2  0  0  0  0  0  0  0  0  0
    0.1507   -0.6998   -2.0416 C   0  0  0  0  0  0  0  0  0  0  0  0
   -1.0259   -1.5960   -1.7879 C   0  0  0  0  0  0  0  0  0  0  0  0
   -2.2661   -1.3013   -2.3809 C   0  0  0  0  0  0  0  0  0  0  0  0
   -3.4230   -1.9539   -1.9598 C   0  0  0  0  0  0  0  0  0  0  0  0
   -3.3141   -2.9188   -0.9468 C   0  0  0  0  0  0  0  0  0  0  0  0
   -2.0699   -3.3332   -0.4496 C   0  0  0  0  0  0  0  0  0  0  0  0
   -0.9248   -2.6609   -0.8775 C   0  0  0  0  0  0  0  0  0  0  0  0
   -4.5177   -3.4303   -0.4768 O   0  0  0  0  0  0  0  0  0  0  0  0
   -4.6949   -3.3861    0.9676 C   0  0  0  0  0  0  0  0  0  0  0  0
   -4.7306   -1.9448    1.4849 C   0  0  0  0  0  0  0  0  0  0  0  0
   -3.3542   -1.4421    1.9286 C   0  0  0  0  0  0  0  0  0  0  0  0
   -3.4078   -0.0323    2.4772 C   0  0  0  0  0  0  0  0  0  0  0  0
   -3.6166    0.2198    3.6480 O   0  0  0  0  0  0  0  0  0  0  0  0
   -3.0682    1.0488    1.6276 N   0  0  0  0  0  0  0  0  0  0  0  0
   -3.2166    1.0384    0.1634 C   0  0  2  0  0  0  0  0  0  0  0  0
   -1.8549    1.1740   -0.5788 C   0  0  0  0  0  0  0  0  0  0  0  0
   -1.8091    1.7764   -1.6538 O   0  0  0  0  0  0  0  0  0  0  0  0
   -0.7574    0.5417   -0.0365 N   0  0  0  0  0  0  0  0  0  0  0  0
   -4.1725    2.1465   -0.3113 C   0  0  0  0  0  0  0  0  0  0  0  0
   -3.6686    3.5313    0.0656 C   0  0  0  0  0  0  0  0  0  0  0  0
   -3.8049    3.9977    1.1861 O   0  0  0  0  0  0  0  0  0  0  0  0
   -3.0695    4.2645   -0.9517 N   0  0  0  0  0  0  0  0  0  0  0  0
    1.2615    1.4588   -1.2012 C   0  0  2  0  0  0  0  0  0  0  0  0
    0.8092    2.0138   -2.4403 O   0  0  0  0  0  0  0  0  0  0  0  0
    2.7576    1.1696   -1.4862 C   0  0  0  0  0  0  0  0  0  0  0  0
    3.6617    1.5122   -0.3712 N   0  0  0  0  0  0  0  0  0  0  0  0
    3.8955    0.3850    0.9058 S   0  0  0  0  0  0  0  0  0  0  0  0
    2.9031   -0.6703    0.7289 O   0  0  0  0  0  0  0  0  0  0  0  0
    3.9030    1.1788    2.1154 O   0  0  0  0  0  0  0  0  0  0  0  0
    5.4653   -0.2626    0.6119 C   0  0  0  0  0  0  0  0  0  0  0  0
    6.5911    0.3756    1.1434 C   0  0  0  0  0  0  0  0  0  0  0  0
    7.8660   -0.1457    0.9038 C   0  0  0  0  0  0  0  0  0  0  0  0
    8.0116   -1.3059    0.1356 C   0  0  0  0  0  0  0  0  0  0  0  0
    6.8847   -1.9491   -0.3896 C   0  0  0  0  0  0  0  0  0  0  0  0
    5.6107   -1.4274   -0.1495 C   0  0  0  0  0  0  0  0  0  0  0  0
    1.1085   -0.4267   -0.0906 H   0  0  0  0  0  0  0  0  0  0  0  0
   -0.0294   -0.0466   -2.9269 H   0  0  0  0  0  0  0  0  0  0  0  0
    1.0512   -1.2917   -2.3013 H   0  0  0  0  0  0  0  0  0  0  0  0
   -2.3309   -0.5230   -3.1443 H   0  0  0  0  0  0  0  0  0  0  0  0
   -4.3968   -1.7248   -2.3867 H   0  0  0  0  0  0  0  0  0  0  0  0
   -2.0041   -4.1506    0.2634 H   0  0  0  0  0  0  0  0  0  0  0  0
    0.0503   -2.9451   -0.4798 H   0  0  0  0  0  0  0  0  0  0  0  0
   -3.9229   -4.0050    1.4522 H   0  0  0  0  0  0  0  0  0  0  0  0
   -5.6819   -3.8822    1.0562 H   0  0  0  0  0  0  0  0  0  0  0  0
   -5.1509   -1.2890    0.6940 H   0  0  0  0  0  0  0  0  0  0  0  0
   -5.4404   -1.8771    2.3378 H   0  0  0  0  0  0  0  0  0  0  0  0
   -2.9623   -2.0962    2.7423 H   0  0  0  0  0  0  0  0  0  0  0  0
   -2.6147   -1.5284    1.1071 H   0  0  0  0  0  0  0  0  0  0  0  0
   -3.1287    1.9908    2.0638 H   0  0  0  0  0  0  0  0  0  0  0  0
   -3.6346    0.0458   -0.1872 H   0  0  0  0  0  0  0  0  0  0  0  0
   -0.8137    0.1371    0.9002 H   0  0  0  0  0  0  0  0  0  0  0  0
   -5.1749    2.0069    0.1509 H   0  0  0  0  0  0  0  0  0  0  0  0
   -4.3296    2.0539   -1.4082 H   0  0  0  0  0  0  0  0  0  0  0  0
   -2.7163    3.8041   -1.7849 H   0  0  0  0  0  0  0  0  0  0  0  0
   -2.6491    5.1567   -0.7311 H   0  0  0  0  0  0  0  0  0  0  0  0
    1.1385    2.2398   -0.4147 H   0  0  0  0  0  0  0  0  0  0  0  0
   -0.1919    2.1173   -2.4281 H   0  0  0  0  0  0  0  0  0  0  0  0
    3.0531    1.7831   -2.3787 H   0  0  0  0  0  0  0  0  0  0  0  0
    2.9087    0.1108   -1.7884 H   0  0  0  0  0  0  0  0  0  0  0  0
    3.6179    2.5102   -0.1235 H   0  0  0  0  0  0  0  0  0  0  0  0
    6.4775    1.2768    1.7563 H   0  0  0  0  0  0  0  0  0  0  0  0
    8.7436    0.3503    1.3173 H   0  0  0  0  0  0  0  0  0  0  0  0
    9.0066   -1.7126   -0.0525 H   0  0  0  0  0  0  0  0  0  0  0  0
    7.0000   -2.8560   -0.9819 H   0  0  0  0  0  0  0  0  0  0  0  0
    4.7284   -1.9387   -0.5484 H   0  0  0  0  0  0  0  0  0  0  0  0
  1 37  1  1  0  0  0
  1 19  1  0  0  0  0
  2  3  1  0  0  0  0
  2  1  1  0  0  0  0
  3  8  2  0  0  0  0
  4  5  2  0  0  0  0
  4  3  1  0  0  0  0
  5  6  1  0  0  0  0
  6  9  1  0  0  0  0
  6  7  2  0  0  0  0
  7 42  1  0  0  0  0
  8 43  1  0  0  0  0
  8  7  1  0  0  0  0
  9 10  1  0  0  0  0
 10 45  1  0  0  0  0
 10 44  1  0  0  0  0
 10 11  1  0  0  0  0
 11 12  1  0  0  0  0
 11 47  1  0  0  0  0
 12 13  1  0  0  0  0
 12 48  1  0  0  0  0
 13 14  2  0  0  0  0
 15 50  1  0  0  0  0
 15 13  1  0  0  0  0
 16 51  1  6  0  0  0
 16 15  1  0  0  0  0
 17 19  1  0  0  0  0
 17 16  1  0  0  0  0
 18 17  2  0  0  0  0
 19 52  1  0  0  0  0
 20 21  1  0  0  0  0
 20 53  1  0  0  0  0
 20 16  1  0  0  0  0
 21 22  2  0  0  0  0
 23 56  1  0  0  0  0
 23 21  1  0  0  0  0
 24  1  1  0  0  0  0
 24 57  1  1  0  0  0
 25 58  1  0  0  0  0
 25 24  1  0  0  0  0
 26 24  1  0  0  0  0
 26 27  1  0  0  0  0
 27 61  1  0  0  0  0
 27 28  1  0  0  0  0
 28 30  2  0  0  0  0
 29 28  2  0  0  0  0
 31 28  1  0  0  0  0
 31 32  2  0  0  0  0
 32 62  1  0  0  0  0
 33 32  1  0  0  0  0
 33 63  1  0  0  0  0
 34 33  2  0  0  0  0
 35 36  2  0  0  0  0
 35 34  1  0  0  0  0
 36 31  1  0  0  0  0
 38  2  1  0  0  0  0
 39  2  1  0  0  0  0
 40  4  1  0  0  0  0
 41  5  1  0  0  0  0
 46 11  1  0  0  0  0
 49 12  1  0  0  0  0
 54 20  1  0  0  0  0
 55 23  1  0  0  0  0
 59 26  1  0  0  0  0
 60 26  1  0  0  0  0
 64 34  1  0  0  0  0
 65 35  1  0  0  0  0
 66 36  1  0  0  0  0
M  END
