omegapdb_1qxw_14.log
 OpenBabel10161801213D
Gaussian 16 # PM6 Opt
 36 36  0  0  1  0  0  0  0  0999 V2000
   -4.7326   -0.9065    0.4927 C   0  0  0  0  0  0  0  0  0  0  0  0
   -4.1078   -1.4500   -0.7774 C   0  0  0  0  0  0  0  0  0  0  0  0
   -3.7473   -0.0471   -0.2852 C   0  0  0  0  0  0  0  0  0  0  0  0
   -2.4511    0.2588    0.3230 N   0  0  0  0  0  0  0  0  0  0  0  0
   -1.3887    0.4622   -0.7054 C   0  0  0  0  0  0  0  0  0  0  0  0
   -0.1539    1.0796   -0.0185 C   0  0  0  0  0  0  0  0  0  0  0  0
    0.9701    0.1100    0.4608 C   0  0  1  0  0  0  0  0  0  0  0  0
    0.3260   -0.8856    1.3692 N   0  0  0  0  0  0  0  0  0  0  0  0
    1.6409   -0.5873   -0.7349 C   0  0  0  0  0  0  0  0  0  0  0  0
    3.0218   -1.1596   -0.3964 C   0  0  0  0  0  0  0  0  0  0  0  0
    4.0773   -0.0641   -0.1890 C   0  0  0  0  0  0  0  0  0  0  0  0
    5.4420   -0.6515    0.1610 C   0  0  0  0  0  0  0  0  0  0  0  0
   -0.4341    1.9046    1.1037 O   0  0  0  0  0  0  0  0  0  0  0  0
    0.3945    1.9748   -0.9986 O   0  0  0  0  0  0  0  0  0  0  0  0
   -4.4486   -1.3308    1.4535 H   0  0  0  0  0  0  0  0  0  0  0  0
   -5.7845   -0.6299    0.5017 H   0  0  0  0  0  0  0  0  0  0  0  0
   -3.3781   -2.2526   -0.7103 H   0  0  0  0  0  0  0  0  0  0  0  0
   -4.7156   -1.5665   -1.6699 H   0  0  0  0  0  0  0  0  0  0  0  0
   -4.1324    0.8166   -0.8491 H   0  0  0  0  0  0  0  0  0  0  0  0
   -2.1533   -0.4889    0.9697 H   0  0  0  0  0  0  0  0  0  0  0  0
   -1.7483    1.1686   -1.4902 H   0  0  0  0  0  0  0  0  0  0  0  0
   -1.0965   -0.4716   -1.2322 H   0  0  0  0  0  0  0  0  0  0  0  0
    1.7325    0.7408    0.9946 H   0  0  0  0  0  0  0  0  0  0  0  0
    0.1174   -0.4484    2.2657 H   0  0  0  0  0  0  0  0  0  0  0  0
    0.9541   -1.6636    1.5482 H   0  0  0  0  0  0  0  0  0  0  0  0
    0.9860   -1.3969   -1.1148 H   0  0  0  0  0  0  0  0  0  0  0  0
    1.7279    0.1434   -1.5700 H   0  0  0  0  0  0  0  0  0  0  0  0
    3.3444   -1.8312   -1.2173 H   0  0  0  0  0  0  0  0  0  0  0  0
    2.9640   -1.8027    0.5020 H   0  0  0  0  0  0  0  0  0  0  0  0
    3.7497    0.6285    0.6120 H   0  0  0  0  0  0  0  0  0  0  0  0
    4.1585    0.5552   -1.1044 H   0  0  0  0  0  0  0  0  0  0  0  0
    5.8130   -1.3121   -0.6311 H   0  0  0  0  0  0  0  0  0  0  0  0
    5.4069   -1.2373    1.0863 H   0  0  0  0  0  0  0  0  0  0  0  0
    6.1881    0.1389    0.3022 H   0  0  0  0  0  0  0  0  0  0  0  0
   -1.4001    2.1117    1.1849 H   0  0  0  0  0  0  0  0  0  0  0  0
    0.7776    2.7662   -0.5640 H   0  0  0  0  0  0  0  0  0  0  0  0
  1 16  1  0  0  0  0
  1 15  1  0  0  0  0
  2 17  1  0  0  0  0
  2  3  1  0  0  0  0
  2  1  1  0  0  0  0
  3  4  1  0  0  0  0
  3  1  1  0  0  0  0
  4 20  1  0  0  0  0
  5  6  1  0  0  0  0
  5  4  1  0  0  0  0
  6  7  1  0  0  0  0
  6 13  1  0  0  0  0
  7 23  1  1  0  0  0
  7  8  1  0  0  0  0
  8 25  1  0  0  0  0
  8 24  1  0  0  0  0
  9 10  1  0  0  0  0
  9  7  1  0  0  0  0
 10 11  1  0  0  0  0
 10 29  1  0  0  0  0
 11 12  1  0  0  0  0
 11 30  1  0  0  0  0
 12 34  1  0  0  0  0
 12 33  1  0  0  0  0
 13 35  1  0  0  0  0
 14 36  1  0  0  0  0
 14  6  1  0  0  0  0
 18  2  1  0  0  0  0
 19  3  1  0  0  0  0
 21  5  1  0  0  0  0
 22  5  1  0  0  0  0
 26  9  1  0  0  0  0
 27  9  1  0  0  0  0
 28 10  1  0  0  0  0
 31 11  1  0  0  0  0
 32 12  1  0  0  0  0
M  END
