omegapdb_1v2k_13.log
 OpenBabel10161801213D
Gaussian 16 # PM6 Opt Geom=check
 61 65  0  0  0  0  0  0  0  0999 V2000
   -5.2971   -3.9699    1.8994 N   0  0  0  0  0  0  0  0  0  0  0  0
   -6.2392   -3.0550    1.5401 C   0  0  0  0  0  0  0  0  0  0  0  0
   -6.0843   -2.1688    0.4718 C   0  0  0  0  0  0  0  0  0  0  0  0
   -4.8971   -2.2172   -0.3006 C   0  0  0  0  0  0  0  0  0  0  0  0
   -3.9137   -3.1667    0.0729 C   0  0  0  0  0  0  0  0  0  0  0  0
   -4.1574   -4.0127    1.1568 C   0  0  0  0  0  0  0  0  0  0  0  0
   -4.7541   -1.4399   -1.4747 N   0  0  0  0  0  0  0  0  0  0  0  0
   -5.5925   -0.2117   -1.6041 C   0  0  0  0  0  0  0  0  0  0  0  0
   -5.0664    0.9690   -0.7652 C   0  0  0  0  0  0  0  0  0  0  0  0
   -3.5677    0.8092   -0.4505 C   0  0  0  0  0  0  0  0  0  0  0  0
   -2.8116    0.1861   -1.6352 C   0  0  0  0  0  0  0  0  0  0  0  0
   -3.3754   -1.1975   -2.0051 C   0  0  0  0  0  0  0  0  0  0  0  0
   -2.9526    2.1804   -0.1703 C   0  0  0  0  0  0  0  0  0  0  0  0
   -3.1322    3.1488   -0.8917 O   0  0  0  0  0  0  0  0  0  0  0  0
   -2.2002    2.3530    1.0102 N   0  0  0  0  0  0  0  0  0  0  0  0
   -1.3626    3.5792    1.1293 C   0  0  0  0  0  0  0  0  0  0  0  0
    0.0647    3.2541    1.6273 C   0  0  0  0  0  0  0  0  0  0  0  0
    0.5533    1.9114    1.2182 N   0  0  0  0  0  0  0  0  0  0  0  0
   -0.3330    0.8125    1.6949 C   0  0  0  0  0  0  0  0  0  0  0  0
   -1.8029    1.2503    1.9102 C   0  0  0  0  0  0  0  0  0  0  0  0
    1.0908    1.7853   -0.4289 S   0  0  0  0  0  0  0  0  0  0  0  0
    1.1893    3.1299   -0.9506 O   0  0  0  0  0  0  0  0  0  0  0  0
    0.2584    0.7866   -1.0891 O   0  0  0  0  0  0  0  0  0  0  0  0
    2.6777    1.1129   -0.2484 C   0  0  0  0  0  0  0  0  0  0  0  0
    2.9062   -0.2145   -0.5193 C   0  0  0  0  0  0  0  0  0  0  0  0
    4.2149   -0.7670   -0.3716 C   0  0  0  0  0  0  0  0  0  0  0  0
    5.2764    0.0767    0.0570 C   0  0  0  0  0  0  0  0  0  0  0  0
    5.0095    1.4566    0.3217 C   0  0  0  0  0  0  0  0  0  0  0  0
    3.7414    1.9607    0.1696 C   0  0  0  0  0  0  0  0  0  0  0  0
    6.5888   -0.4744    0.2101 C   0  0  0  0  0  0  0  0  0  0  0  0
    6.7886   -1.8027   -0.0634 C   0  0  0  0  0  0  0  0  0  0  0  0
    5.7395   -2.6639   -0.4976 C   0  0  0  0  0  0  0  0  0  0  0  0
    4.4778   -2.1488   -0.6475 C   0  0  0  0  0  0  0  0  0  0  0  0
    8.3613   -2.4855    0.1159 Cl  0  0  0  0  0  0  0  0  0  0  0  0
   -7.1498   -3.0453    2.1512 H   0  0  0  0  0  0  0  0  0  0  0  0
   -6.8760   -1.4646    0.2330 H   0  0  0  0  0  0  0  0  0  0  0  0
   -2.9855   -3.2505   -0.4877 H   0  0  0  0  0  0  0  0  0  0  0  0
   -3.4185   -4.7629    1.4620 H   0  0  0  0  0  0  0  0  0  0  0  0
   -6.6451   -0.4476   -1.3349 H   0  0  0  0  0  0  0  0  0  0  0  0
   -5.6006    0.0613   -2.6846 H   0  0  0  0  0  0  0  0  0  0  0  0
   -5.6356    1.0617    0.1776 H   0  0  0  0  0  0  0  0  0  0  0  0
   -5.2358    1.9182   -1.3190 H   0  0  0  0  0  0  0  0  0  0  0  0
   -3.4626    0.1331    0.4393 H   0  0  0  0  0  0  0  0  0  0  0  0
   -1.7221    0.1128   -1.4096 H   0  0  0  0  0  0  0  0  0  0  0  0
   -2.8707    0.8690   -2.5085 H   0  0  0  0  0  0  0  0  0  0  0  0
   -3.4420   -1.2951   -3.1133 H   0  0  0  0  0  0  0  0  0  0  0  0
   -2.6837   -2.0008   -1.6663 H   0  0  0  0  0  0  0  0  0  0  0  0
   -1.8635    4.2847    1.8277 H   0  0  0  0  0  0  0  0  0  0  0  0
   -1.3257    4.0964    0.1349 H   0  0  0  0  0  0  0  0  0  0  0  0
    0.7720    4.0320    1.2536 H   0  0  0  0  0  0  0  0  0  0  0  0
    0.1032    3.2999    2.7399 H   0  0  0  0  0  0  0  0  0  0  0  0
   -0.3001   -0.0502    0.9900 H   0  0  0  0  0  0  0  0  0  0  0  0
    0.0871    0.4516    2.6629 H   0  0  0  0  0  0  0  0  0  0  0  0
   -2.4844    0.3764    1.7722 H   0  0  0  0  0  0  0  0  0  0  0  0
   -1.9462    1.5994    2.9595 H   0  0  0  0  0  0  0  0  0  0  0  0
    2.0933   -0.8682   -0.8604 H   0  0  0  0  0  0  0  0  0  0  0  0
    5.8308    2.0984    0.6406 H   0  0  0  0  0  0  0  0  0  0  0  0
    3.5380    3.0197    0.3575 H   0  0  0  0  0  0  0  0  0  0  0  0
    7.4049    0.1695    0.5393 H   0  0  0  0  0  0  0  0  0  0  0  0
    5.9584   -3.7124   -0.7032 H   0  0  0  0  0  0  0  0  0  0  0  0
    3.6542   -2.7826   -0.9809 H   0  0  0  0  0  0  0  0  0  0  0  0
  2  1  1  0  0  0  0
  2 35  1  0  0  0  0
  3  2  2  0  0  0  0
  4  5  2  0  0  0  0
  4  3  1  0  0  0  0
  5  6  1  0  0  0  0
  6 38  1  0  0  0  0
  6  1  2  0  0  0  0
  7  4  1  0  0  0  0
  8  7  1  0  0  0  0
  8 39  1  0  0  0  0
  8  9  1  0  0  0  0
  9 10  1  0  0  0  0
  9 41  1  0  0  0  0
 10 13  1  0  0  0  0
 10 43  1  0  0  0  0
 11 44  1  0  0  0  0
 11 10  1  0  0  0  0
 12 47  1  0  0  0  0
 12 11  1  0  0  0  0
 12  7  1  0  0  0  0
 13 15  1  0  0  0  0
 14 13  2  0  0  0  0
 15 16  1  0  0  0  0
 15 20  1  0  0  0  0
 16 17  1  0  0  0  0
 16 48  1  0  0  0  0
 17 51  1  0  0  0  0
 18 17  1  0  0  0  0
 18 19  1  0  0  0  0
 19 20  1  0  0  0  0
 19 53  1  0  0  0  0
 20 55  1  0  0  0  0
 21 24  1  0  0  0  0
 21 18  1  0  0  0  0
 22 21  2  0  0  0  0
 23 21  2  0  0  0  0
 24 29  2  0  0  0  0
 25 26  2  0  0  0  0
 25 24  1  0  0  0  0
 26 27  1  0  0  0  0
 27 30  1  0  0  0  0
 27 28  2  0  0  0  0
 28 57  1  0  0  0  0
 29 28  1  0  0  0  0
 29 58  1  0  0  0  0
 30 59  1  0  0  0  0
 31 34  1  0  0  0  0
 31 30  2  0  0  0  0
 32 31  1  0  0  0  0
 33 32  2  0  0  0  0
 33 26  1  0  0  0  0
 36  3  1  0  0  0  0
 37  5  1  0  0  0  0
 40  8  1  0  0  0  0
 42  9  1  0  0  0  0
 45 11  1  0  0  0  0
 46 12  1  0  0  0  0
 49 16  1  0  0  0  0
 50 17  1  0  0  0  0
 52 19  1  0  0  0  0
 54 20  1  0  0  0  0
 56 25  1  0  0  0  0
 60 32  1  0  0  0  0
 61 33  1  0  0  0  0
M  END
