omegapdb_1m5f_16.log
 OpenBabel10161801213D
Gaussian 16 # PM6 Opt
 25 25  0  0  1  0  0  0  0  0999 V2000
   -0.2727   -2.3333    0.8706 O   0  0  0  0  0  0  0  0  0  0  0  0
   -1.2055   -2.1016   -0.1142 C   0  0  0  0  0  0  0  0  0  0  0  0
   -1.5185   -2.9679   -0.8873 O   0  0  0  0  0  0  0  0  0  0  0  0
   -1.6553   -0.6930   -0.0389 C   0  0  0  0  0  0  0  0  0  0  0  0
   -2.8946   -0.3332    0.3204 N   0  0  0  0  0  0  0  0  0  0  0  0
   -2.9805    1.0354    0.2484 O   0  0  0  0  0  0  0  0  0  0  0  0
   -1.7307    1.5395   -0.1765 C   0  0  0  0  0  0  0  0  0  0  0  0
   -0.8634    0.4842   -0.3640 C   0  0  0  0  0  0  0  0  0  0  0  0
    0.5491    0.5056   -0.7989 C   0  0  0  0  0  0  0  0  0  0  0  0
    1.5057    0.1723    0.3724 C   0  0  2  0  0  0  0  0  0  0  0  0
    1.4764    1.1099    1.5132 N   0  0  0  0  0  0  0  0  0  0  0  0
    2.9377    0.2119   -0.1634 C   0  0  0  0  0  0  0  0  0  0  0  0
    3.5602    1.1245   -0.6472 O   0  0  0  0  0  0  0  0  0  0  0  0
    3.4933   -1.0392   -0.0638 O   0  0  0  0  0  0  0  0  0  0  0  0
   -1.6708    2.9948   -0.3163 C   0  0  0  0  0  0  0  0  0  0  0  0
    0.0557   -3.2781    0.8714 H   0  0  0  0  0  0  0  0  0  0  0  0
    0.7031   -0.2233   -1.6271 H   0  0  0  0  0  0  0  0  0  0  0  0
    0.8108    1.4950   -1.2371 H   0  0  0  0  0  0  0  0  0  0  0  0
    1.2801   -0.8673    0.7622 H   0  0  0  0  0  0  0  0  0  0  0  0
    1.5144    2.0782    1.2078 H   0  0  0  0  0  0  0  0  0  0  0  0
    0.6336    0.9800    2.0661 H   0  0  0  0  0  0  0  0  0  0  0  0
    4.4401   -1.0697   -0.3701 H   0  0  0  0  0  0  0  0  0  0  0  0
   -1.4521    3.2934   -1.3573 H   0  0  0  0  0  0  0  0  0  0  0  0
   -2.6261    3.4771   -0.0402 H   0  0  0  0  0  0  0  0  0  0  0  0
   -0.8890    3.4393    0.3221 H   0  0  0  0  0  0  0  0  0  0  0  0
  1 16  1  0  0  0  0
  2  4  1  0  0  0  0
  2  1  1  0  0  0  0
  3  2  2  0  0  0  0
  4  5  2  0  0  0  0
  6  5  1  0  0  0  0
  7  6  1  0  0  0  0
  8  7  2  0  0  0  0
  8  4  1  0  0  0  0
  9  8  1  0  0  0  0
  9 10  1  0  0  0  0
 10 19  1  1  0  0  0
 10 11  1  0  0  0  0
 11 21  1  0  0  0  0
 12 14  1  0  0  0  0
 12 10  1  0  0  0  0
 13 12  2  0  0  0  0
 15  7  1  0  0  0  0
 15 24  1  0  0  0  0
 15 25  1  0  0  0  0
 17  9  1  0  0  0  0
 18  9  1  0  0  0  0
 20 11  1  0  0  0  0
 22 14  1  0  0  0  0
 23 15  1  0  0  0  0
M  END
