omegapdb_1m5f_03.log
 OpenBabel10161801213D
Gaussian 16 # PM6 Opt
 25 25  0  0  1  0  0  0  0  0999 V2000
    2.4664    2.7787    0.0925 O   0  0  0  0  0  0  0  0  0  0  0  0
    1.4038    1.9318   -0.0049 C   0  0  0  0  0  0  0  0  0  0  0  0
    0.3040    2.4299   -0.0895 O   0  0  0  0  0  0  0  0  0  0  0  0
    1.6807    0.4741   -0.0025 C   0  0  0  0  0  0  0  0  0  0  0  0
    2.8431   -0.0826    0.3768 N   0  0  0  0  0  0  0  0  0  0  0  0
    2.7198   -1.4418    0.2930 O   0  0  0  0  0  0  0  0  0  0  0  0
    1.4126   -1.7436   -0.1626 C   0  0  0  0  0  0  0  0  0  0  0  0
    0.7328   -0.5610   -0.3708 C   0  0  0  0  0  0  0  0  0  0  0  0
   -0.6578   -0.3566   -0.8357 C   0  0  0  0  0  0  0  0  0  0  0  0
   -1.6459   -0.4473    0.3495 C   0  0  2  0  0  0  0  0  0  0  0  0
   -2.0398   -1.8598    0.5677 N   0  0  0  0  0  0  0  0  0  0  0  0
   -2.8660    0.4559    0.0772 C   0  0  0  0  0  0  0  0  0  0  0  0
   -4.0023    0.0635   -0.0202 O   0  0  0  0  0  0  0  0  0  0  0  0
   -2.6405    1.7951   -0.0421 O   0  0  0  0  0  0  0  0  0  0  0  0
    1.0998   -3.1651   -0.2755 C   0  0  0  0  0  0  0  0  0  0  0  0
    3.3583    2.3396    0.1860 H   0  0  0  0  0  0  0  0  0  0  0  0
   -0.7470    0.6340   -1.3413 H   0  0  0  0  0  0  0  0  0  0  0  0
   -0.9194   -1.1078   -1.6144 H   0  0  0  0  0  0  0  0  0  0  0  0
   -1.1426   -0.0760    1.2861 H   0  0  0  0  0  0  0  0  0  0  0  0
   -2.6448   -2.1856   -0.1870 H   0  0  0  0  0  0  0  0  0  0  0  0
   -2.5787   -1.9502    1.4286 H   0  0  0  0  0  0  0  0  0  0  0  0
   -1.6817    2.0866    0.0284 H   0  0  0  0  0  0  0  0  0  0  0  0
    0.0931   -3.3719    0.1500 H   0  0  0  0  0  0  0  0  0  0  0  0
    1.8212   -3.8041    0.2596 H   0  0  0  0  0  0  0  0  0  0  0  0
    1.0791   -3.5015   -1.3261 H   0  0  0  0  0  0  0  0  0  0  0  0
  1 16  1  0  0  0  0
  2  4  1  0  0  0  0
  2  1  1  0  0  0  0
  3  2  2  0  0  0  0
  4  5  2  0  0  0  0
  6  5  1  0  0  0  0
  7  6  1  0  0  0  0
  8  7  2  0  0  0  0
  8  4  1  0  0  0  0
  9  8  1  0  0  0  0
  9 10  1  0  0  0  0
 10 11  1  0  0  0  0
 10 19  1  1  0  0  0
 11 21  1  0  0  0  0
 12 10  1  0  0  0  0
 13 12  2  0  0  0  0
 14 22  1  0  0  0  0
 14 12  1  0  0  0  0
 15  7  1  0  0  0  0
 15 23  1  0  0  0  0
 15 24  1  0  0  0  0
 17  9  1  0  0  0  0
 18  9  1  0  0  0  0
 20 11  1  0  0  0  0
 25 15  1  0  0  0  0
M  END
