omegapdb_1m5f_23.log
 OpenBabel10161801213D
Gaussian 16 # PM6 Opt
 25 25  0  0  1  0  0  0  0  0999 V2000
   -3.1848   -1.4698   -0.4329 O   0  0  0  0  0  0  0  0  0  0  0  0
   -2.2059   -1.0231    0.4103 C   0  0  0  0  0  0  0  0  0  0  0  0
   -1.9449   -1.7027    1.3726 O   0  0  0  0  0  0  0  0  0  0  0  0
   -1.5560    0.2707    0.0654 C   0  0  0  0  0  0  0  0  0  0  0  0
   -2.0954    1.2031   -0.7322 N   0  0  0  0  0  0  0  0  0  0  0  0
   -1.2178    2.2530   -0.8237 O   0  0  0  0  0  0  0  0  0  0  0  0
   -0.0760    1.9482   -0.0429 C   0  0  0  0  0  0  0  0  0  0  0  0
   -0.2508    0.7092    0.5359 C   0  0  0  0  0  0  0  0  0  0  0  0
    0.6378   -0.0591    1.4375 C   0  0  0  0  0  0  0  0  0  0  0  0
    1.8895   -0.6540    0.7583 C   0  0  2  0  0  0  0  0  0  0  0  0
    2.8973    0.4144    0.4873 N   0  0  0  0  0  0  0  0  0  0  0  0
    1.5640   -1.3242   -0.5764 C   0  0  0  0  0  0  0  0  0  0  0  0
    0.5364   -1.4791   -1.1807 O   0  0  0  0  0  0  0  0  0  0  0  0
    2.7368   -1.8599   -1.0764 O   0  0  0  0  0  0  0  0  0  0  0  0
    0.9546    2.9848   -0.0529 C   0  0  0  0  0  0  0  0  0  0  0  0
   -3.3618   -0.8925   -1.2239 H   0  0  0  0  0  0  0  0  0  0  0  0
    0.0524   -0.8956    1.9022 H   0  0  0  0  0  0  0  0  0  0  0  0
    0.9543    0.5843    2.2882 H   0  0  0  0  0  0  0  0  0  0  0  0
    2.2921   -1.4678    1.4299 H   0  0  0  0  0  0  0  0  0  0  0  0
    3.7000    0.0264   -0.0118 H   0  0  0  0  0  0  0  0  0  0  0  0
    3.2398    0.8022    1.3626 H   0  0  0  0  0  0  0  0  0  0  0  0
    2.6112   -2.3155   -1.9512 H   0  0  0  0  0  0  0  0  0  0  0  0
    1.0882    3.4380    0.9426 H   0  0  0  0  0  0  0  0  0  0  0  0
    0.7270    3.7976   -0.7614 H   0  0  0  0  0  0  0  0  0  0  0  0
    1.9345    2.5521   -0.3455 H   0  0  0  0  0  0  0  0  0  0  0  0
  1  2  1  0  0  0  0
  2  3  2  0  0  0  0
  4  2  1  0  0  0  0
  4  8  1  0  0  0  0
  5  4  2  0  0  0  0
  6  5  1  0  0  0  0
  6  7  1  0  0  0  0
  7  8  2  0  0  0  0
  8  9  1  0  0  0  0
  9 17  1  0  0  0  0
  9 18  1  0  0  0  0
 10 19  1  1  0  0  0
 10  9  1  0  0  0  0
 11 10  1  0  0  0  0
 11 21  1  0  0  0  0
 12 10  1  0  0  0  0
 13 12  2  0  0  0  0
 14 12  1  0  0  0  0
 15  7  1  0  0  0  0
 15 23  1  0  0  0  0
 16  1  1  0  0  0  0
 20 11  1  0  0  0  0
 22 14  1  0  0  0  0
 24 15  1  0  0  0  0
 25 15  1  0  0  0  0
M  END
