omegapdb_2byh_11.log
 OpenBabel10161801213D
Gaussian 16 # PM6 Opt
 40 42  0  0  0  0  0  0  0  0999 V2000
    7.5645    0.3769   -0.4200 O   0  0  0  0  0  0  0  0  0  0  0  0
    6.6177    0.9257    0.1095 C   0  0  0  0  0  0  0  0  0  0  0  0
    6.7965    2.2238    0.8466 C   0  0  0  0  0  0  0  0  0  0  0  0
    5.2521    0.3352    0.0477 C   0  0  0  0  0  0  0  0  0  0  0  0
    4.1314    0.9290    0.6471 C   0  0  0  0  0  0  0  0  0  0  0  0
    2.8745    0.3357    0.5597 C   0  0  0  0  0  0  0  0  0  0  0  0
    2.7254   -0.8767   -0.1389 C   0  0  0  0  0  0  0  0  0  0  0  0
    3.8467   -1.4866   -0.7483 C   0  0  0  0  0  0  0  0  0  0  0  0
    5.0923   -0.8775   -0.6493 C   0  0  0  0  0  0  0  0  0  0  0  0
    1.4731   -1.5455   -0.2658 N   0  0  0  0  0  0  0  0  0  0  0  0
    0.2244   -1.0929    0.2403 C   0  0  0  0  0  0  0  0  0  0  0  0
    0.1195   -0.0054    0.7792 O   0  0  0  0  0  0  0  0  0  0  0  0
   -0.8829   -2.0272    0.0275 C   0  0  0  0  0  0  0  0  0  0  0  0
   -0.7846   -3.4608   -0.0595 C   0  0  0  0  0  0  0  0  0  0  0  0
   -2.0154   -4.0074   -0.1939 N   0  0  0  0  0  0  0  0  0  0  0  0
   -2.8989   -2.9673   -0.2030 N   0  0  0  0  0  0  0  0  0  0  0  0
   -2.2635   -1.7294   -0.0539 C   0  0  0  0  0  0  0  0  0  0  0  0
   -3.0084   -0.4808   -0.0283 C   0  0  0  0  0  0  0  0  0  0  0  0
   -2.3887    0.7368   -0.3869 C   0  0  0  0  0  0  0  0  0  0  0  0
   -3.0899    1.9359   -0.3485 C   0  0  0  0  0  0  0  0  0  0  0  0
   -2.3409    3.4006   -0.7975 Cl  0  0  0  0  0  0  0  0  0  0  0  0
   -4.4391    1.9568    0.0756 C   0  0  0  0  0  0  0  0  0  0  0  0
   -5.0340    3.1767    0.0922 O   0  0  0  0  0  0  0  0  0  0  0  0
   -5.0944    0.7744    0.4398 C   0  0  0  0  0  0  0  0  0  0  0  0
   -4.3644   -0.4198    0.3730 C   0  0  0  0  0  0  0  0  0  0  0  0
   -4.9615   -1.6159    0.6828 O   0  0  0  0  0  0  0  0  0  0  0  0
    6.1970    3.0304    0.4065 H   0  0  0  0  0  0  0  0  0  0  0  0
    7.8489    2.5464    0.8123 H   0  0  0  0  0  0  0  0  0  0  0  0
    6.5204    2.1351    1.9047 H   0  0  0  0  0  0  0  0  0  0  0  0
    4.2305    1.8692    1.1927 H   0  0  0  0  0  0  0  0  0  0  0  0
    2.0076    0.8126    1.0316 H   0  0  0  0  0  0  0  0  0  0  0  0
    3.7470   -2.4222   -1.2925 H   0  0  0  0  0  0  0  0  0  0  0  0
    5.9708   -1.3378   -1.1163 H   0  0  0  0  0  0  0  0  0  0  0  0
    1.4937   -2.4259   -0.7877 H   0  0  0  0  0  0  0  0  0  0  0  0
    0.1113   -4.0602   -0.0070 H   0  0  0  0  0  0  0  0  0  0  0  0
   -3.8999   -3.1440   -0.2520 H   0  0  0  0  0  0  0  0  0  0  0  0
   -1.3325    0.7444   -0.6916 H   0  0  0  0  0  0  0  0  0  0  0  0
   -5.9771    3.1389    0.4078 H   0  0  0  0  0  0  0  0  0  0  0  0
   -6.1281    0.7820    0.7629 H   0  0  0  0  0  0  0  0  0  0  0  0
   -5.8836   -1.5055    1.0320 H   0  0  0  0  0  0  0  0  0  0  0  0
  1  2  2  0  0  0  0
  2  3  1  0  0  0  0
  3 29  1  0  0  0  0
  4  2  1  0  0  0  0
  4  5  2  0  0  0  0
  5 30  1  0  0  0  0
  6  5  1  0  0  0  0
  6 31  1  0  0  0  0
  7  6  2  0  0  0  0
  8  9  2  0  0  0  0
  8  7  1  0  0  0  0
  9  4  1  0  0  0  0
 10  7  1  0  0  0  0
 10 11  1  0  0  0  0
 11 12  2  0  0  0  0
 13 11  1  0  0  0  0
 14 35  1  0  0  0  0
 14 13  1  0  0  0  0
 15 14  2  0  0  0  0
 16 15  1  0  0  0  0
 16 17  1  0  0  0  0
 17 18  1  0  0  0  0
 17 13  2  0  0  0  0
 18 25  2  0  0  0  0
 19 20  2  0  0  0  0
 19 18  1  0  0  0  0
 20 22  1  0  0  0  0
 21 20  1  0  0  0  0
 22 23  1  0  0  0  0
 22 24  2  0  0  0  0
 23 38  1  0  0  0  0
 24 39  1  0  0  0  0
 25 24  1  0  0  0  0
 25 26  1  0  0  0  0
 26 40  1  0  0  0  0
 27  3  1  0  0  0  0
 28  3  1  0  0  0  0
 32  8  1  0  0  0  0
 33  9  1  0  0  0  0
 34 10  1  0  0  0  0
 36 16  1  0  0  0  0
 37 19  1  0  0  0  0
M  END
