omegapdb_1gs5_07.log
 OpenBabel10161801213D
Gaussian 16 # PM6 Opt
 24 23  0  0  1  0  0  0  0  0999 V2000
    0.8522    0.7289   -0.9984 C   0  0  2  0  0  0  0  0  0  0  0  0
    1.1114    1.8109    0.0783 C   0  0  0  0  0  0  0  0  0  0  0  0
    1.3486    2.9540   -0.2295 O   0  0  0  0  0  0  0  0  0  0  0  0
    1.0401    1.5000    1.3895 O   0  0  0  0  0  0  0  0  0  0  0  0
   -0.6422    0.3843   -1.1186 C   0  0  0  0  0  0  0  0  0  0  0  0
   -1.3785    0.1444    0.1979 C   0  0  0  0  0  0  0  0  0  0  0  0
   -2.7514   -0.3964   -0.0583 C   0  0  0  0  0  0  0  0  0  0  0  0
   -3.1970   -0.9752   -1.0216 O   0  0  0  0  0  0  0  0  0  0  0  0
   -3.5546   -0.1639    1.0337 O   0  0  0  0  0  0  0  0  0  0  0  0
    1.7369   -0.4498   -0.8689 N   0  0  0  0  0  0  0  0  0  0  0  0
    1.7592   -1.3483    0.1972 C   0  0  0  0  0  0  0  0  0  0  0  0
    1.1091   -1.1472    1.2213 O   0  0  0  0  0  0  0  0  0  0  0  0
    2.6410   -2.5443    0.0169 C   0  0  0  0  0  0  0  0  0  0  0  0
    1.1481    1.2248   -1.9765 H   0  0  0  0  0  0  0  0  0  0  0  0
    0.8771    0.5116    1.6118 H   0  0  0  0  0  0  0  0  0  0  0  0
   -1.1462    1.2110   -1.6692 H   0  0  0  0  0  0  0  0  0  0  0  0
   -0.7601   -0.5098   -1.7739 H   0  0  0  0  0  0  0  0  0  0  0  0
   -1.4370    1.0735    0.8124 H   0  0  0  0  0  0  0  0  0  0  0  0
   -0.8271   -0.5864    0.8473 H   0  0  0  0  0  0  0  0  0  0  0  0
   -4.4751   -0.5248    0.9199 H   0  0  0  0  0  0  0  0  0  0  0  0
    2.3083   -0.6360   -1.6932 H   0  0  0  0  0  0  0  0  0  0  0  0
    2.3482   -3.1672   -0.8402 H   0  0  0  0  0  0  0  0  0  0  0  0
    3.7006   -2.2753   -0.1054 H   0  0  0  0  0  0  0  0  0  0  0  0
    2.5844   -3.1917    0.9122 H   0  0  0  0  0  0  0  0  0  0  0  0
  1 14  1  6  0  0  0
  1 10  1  0  0  0  0
  1  2  1  0  0  0  0
  2  4  1  0  0  0  0
  3  2  2  0  0  0  0
  4 15  1  0  0  0  0
  5  1  1  0  0  0  0
  5  6  1  0  0  0  0
  6 18  1  0  0  0  0
  6 19  1  0  0  0  0
  7  6  1  0  0  0  0
  7  9  1  0  0  0  0
  8  7  2  0  0  0  0
 10 11  1  0  0  0  0
 11 12  2  0  0  0  0
 13 11  1  0  0  0  0
 13 24  1  0  0  0  0
 16  5  1  0  0  0  0
 17  5  1  0  0  0  0
 20  9  1  0  0  0  0
 21 10  1  0  0  0  0
 22 13  1  0  0  0  0
 23 13  1  0  0  0  0
M  END
