omegapdb_1gs5_00.log
 OpenBabel10161801213D
Gaussian 16 # PM6 Opt
 24 23  0  0  1  0  0  0  0  0999 V2000
    0.4137    0.6382    0.0092 C   0  0  2  0  0  0  0  0  0  0  0  0
    1.0150    2.0328   -0.1838 C   0  0  0  0  0  0  0  0  0  0  0  0
    2.0758    2.4581    0.2066 O   0  0  0  0  0  0  0  0  0  0  0  0
    0.1508    2.8112   -0.8963 O   0  0  0  0  0  0  0  0  0  0  0  0
   -0.5932    0.6768    1.1781 C   0  0  0  0  0  0  0  0  0  0  0  0
   -1.5121   -0.5447    1.1901 C   0  0  0  0  0  0  0  0  0  0  0  0
   -2.4999   -0.4866    0.0420 C   0  0  0  0  0  0  0  0  0  0  0  0
   -3.5868    0.0333    0.0670 O   0  0  0  0  0  0  0  0  0  0  0  0
   -2.0986   -1.0625   -1.1311 O   0  0  0  0  0  0  0  0  0  0  0  0
    1.5400   -0.2862    0.2587 N   0  0  0  0  0  0  0  0  0  0  0  0
    1.5020   -1.6179   -0.1606 C   0  0  0  0  0  0  0  0  0  0  0  0
    0.5033   -2.0785   -0.6996 O   0  0  0  0  0  0  0  0  0  0  0  0
    2.7428   -2.4114    0.1054 C   0  0  0  0  0  0  0  0  0  0  0  0
   -0.1225    0.3333   -0.9427 H   0  0  0  0  0  0  0  0  0  0  0  0
    0.4922    3.7385   -1.0484 H   0  0  0  0  0  0  0  0  0  0  0  0
   -0.0570    0.7463    2.1468 H   0  0  0  0  0  0  0  0  0  0  0  0
   -1.2087    1.6031    1.1044 H   0  0  0  0  0  0  0  0  0  0  0  0
   -0.9273   -1.4885    1.1618 H   0  0  0  0  0  0  0  0  0  0  0  0
   -2.0818   -0.5758    2.1455 H   0  0  0  0  0  0  0  0  0  0  0  0
   -1.2070   -1.5430   -1.0975 H   0  0  0  0  0  0  0  0  0  0  0  0
    2.3435    0.1006    0.7593 H   0  0  0  0  0  0  0  0  0  0  0  0
    2.6232   -3.4401   -0.2809 H   0  0  0  0  0  0  0  0  0  0  0  0
    2.9708   -2.4990    1.1770 H   0  0  0  0  0  0  0  0  0  0  0  0
    3.6290   -1.9893   -0.3917 H   0  0  0  0  0  0  0  0  0  0  0  0
  1 14  1  6  0  0  0
  1 10  1  0  0  0  0
  1  5  1  0  0  0  0
  2  1  1  0  0  0  0
  2  3  2  0  0  0  0
  4  2  1  0  0  0  0
  5  6  1  0  0  0  0
  5 16  1  0  0  0  0
  6 19  1  0  0  0  0
  7  8  2  0  0  0  0
  7  6  1  0  0  0  0
  9 20  1  0  0  0  0
  9  7  1  0  0  0  0
 10 21  1  0  0  0  0
 11 13  1  0  0  0  0
 11 10  1  0  0  0  0
 12 11  2  0  0  0  0
 13 23  1  0  0  0  0
 15  4  1  0  0  0  0
 17  5  1  0  0  0  0
 18  6  1  0  0  0  0
 22 13  1  0  0  0  0
 24 13  1  0  0  0  0
M  END
