omegapdb_2byh_10.log
 OpenBabel10161801213D
Gaussian 16 # PM6 Opt
 40 42  0  0  0  0  0  0  0  0999 V2000
    6.5460   -2.3840   -0.1754 O   0  0  0  0  0  0  0  0  0  0  0  0
    6.4375   -1.2646    0.2840 C   0  0  0  0  0  0  0  0  0  0  0  0
    7.6048   -0.5921    0.9524 C   0  0  0  0  0  0  0  0  0  0  0  0
    5.1497   -0.5190    0.2028 C   0  0  0  0  0  0  0  0  0  0  0  0
    4.9799    0.7742    0.7187 C   0  0  0  0  0  0  0  0  0  0  0  0
    3.7542    1.4263    0.6160 C   0  0  0  0  0  0  0  0  0  0  0  0
    2.6690    0.7761   -0.0161 C   0  0  0  0  0  0  0  0  0  0  0  0
    2.8271   -0.5208   -0.5362 C   0  0  0  0  0  0  0  0  0  0  0  0
    4.0608   -1.1545   -0.4231 C   0  0  0  0  0  0  0  0  0  0  0  0
    1.4387    1.4939   -0.0974 N   0  0  0  0  0  0  0  0  0  0  0  0
    0.2320    1.0235   -0.6722 C   0  0  0  0  0  0  0  0  0  0  0  0
    0.1213   -0.0948   -1.1374 O   0  0  0  0  0  0  0  0  0  0  0  0
   -0.8543    2.0135   -0.6477 C   0  0  0  0  0  0  0  0  0  0  0  0
   -0.7861    3.4002   -1.0201 C   0  0  0  0  0  0  0  0  0  0  0  0
   -2.0167    3.9620   -0.9432 N   0  0  0  0  0  0  0  0  0  0  0  0
   -2.8695    2.9756   -0.5327 N   0  0  0  0  0  0  0  0  0  0  0  0
   -2.2024    1.7576   -0.3398 C   0  0  0  0  0  0  0  0  0  0  0  0
   -2.8808    0.5498    0.0865 C   0  0  0  0  0  0  0  0  0  0  0  0
   -2.7272   -0.6254   -0.6791 C   0  0  0  0  0  0  0  0  0  0  0  0
   -3.4186   -1.7790   -0.3342 C   0  0  0  0  0  0  0  0  0  0  0  0
   -3.2523   -3.2008   -1.2702 Cl  0  0  0  0  0  0  0  0  0  0  0  0
   -4.2661   -1.7964    0.8019 C   0  0  0  0  0  0  0  0  0  0  0  0
   -4.9768   -2.8831    1.1884 O   0  0  0  0  0  0  0  0  0  0  0  0
   -4.4047   -0.6587    1.6044 C   0  0  0  0  0  0  0  0  0  0  0  0
   -3.6944    0.4921    1.2446 C   0  0  0  0  0  0  0  0  0  0  0  0
   -3.8685    1.5503    2.0916 O   0  0  0  0  0  0  0  0  0  0  0  0
    7.3939   -0.3524    2.0018 H   0  0  0  0  0  0  0  0  0  0  0  0
    7.8914    0.3350    0.4412 H   0  0  0  0  0  0  0  0  0  0  0  0
    8.4869   -1.2520    0.9429 H   0  0  0  0  0  0  0  0  0  0  0  0
    5.8100    1.2858    1.2085 H   0  0  0  0  0  0  0  0  0  0  0  0
    3.6426    2.4278    1.0225 H   0  0  0  0  0  0  0  0  0  0  0  0
    1.9888   -1.0314   -1.0246 H   0  0  0  0  0  0  0  0  0  0  0  0
    4.1977   -2.1661   -0.8247 H   0  0  0  0  0  0  0  0  0  0  0  0
    1.4379    2.4277    0.3226 H   0  0  0  0  0  0  0  0  0  0  0  0
    0.0877    3.9490   -1.3388 H   0  0  0  0  0  0  0  0  0  0  0  0
   -3.8643    3.1573   -0.4591 H   0  0  0  0  0  0  0  0  0  0  0  0
   -2.0449   -0.6227   -1.5444 H   0  0  0  0  0  0  0  0  0  0  0  0
   -4.8343   -3.6827    0.6043 H   0  0  0  0  0  0  0  0  0  0  0  0
   -5.0363   -0.6725    2.4934 H   0  0  0  0  0  0  0  0  0  0  0  0
   -3.1938    2.2670    1.9656 H   0  0  0  0  0  0  0  0  0  0  0  0
  1  2  2  0  0  0  0
  2  3  1  0  0  0  0
  3 27  1  0  0  0  0
  4  2  1  0  0  0  0
  4  5  2  0  0  0  0
  5 30  1  0  0  0  0
  6  5  1  0  0  0  0
  6 31  1  0  0  0  0
  7  6  2  0  0  0  0
  8  9  2  0  0  0  0
  8  7  1  0  0  0  0
  9  4  1  0  0  0  0
 10  7  1  0  0  0  0
 10 34  1  0  0  0  0
 11 13  1  0  0  0  0
 11 10  1  0  0  0  0
 12 11  2  0  0  0  0
 13 17  2  0  0  0  0
 14 15  2  0  0  0  0
 14 13  1  0  0  0  0
 15 16  1  0  0  0  0
 16 36  1  0  0  0  0
 16 17  1  0  0  0  0
 17 18  1  0  0  0  0
 18 25  2  0  0  0  0
 19 20  2  0  0  0  0
 19 18  1  0  0  0  0
 20 22  1  0  0  0  0
 21 20  1  0  0  0  0
 22 23  1  0  0  0  0
 22 24  2  0  0  0  0
 24 39  1  0  0  0  0
 25 24  1  0  0  0  0
 25 26  1  0  0  0  0
 28  3  1  0  0  0  0
 29  3  1  0  0  0  0
 32  8  1  0  0  0  0
 33  9  1  0  0  0  0
 35 14  1  0  0  0  0
 37 19  1  0  0  0  0
 38 23  1  0  0  0  0
 40 26  1  0  0  0  0
M  END
