omegapdb_2byh_04.log
 OpenBabel10161801213D
Gaussian 16 # PM6 Opt
 40 42  0  0  0  0  0  0  0  0999 V2000
    5.9939    2.2841   -0.4722 O   0  0  0  0  0  0  0  0  0  0  0  0
    5.8263    1.1305   -0.1277 C   0  0  0  0  0  0  0  0  0  0  0  0
    6.9775    0.3006    0.3673 C   0  0  0  0  0  0  0  0  0  0  0  0
    4.4776    0.4996   -0.1832 C   0  0  0  0  0  0  0  0  0  0  0  0
    3.4037    1.2877   -0.6391 C   0  0  0  0  0  0  0  0  0  0  0  0
    2.1173    0.7663   -0.7175 C   0  0  0  0  0  0  0  0  0  0  0  0
    1.8890   -0.5750   -0.3326 C   0  0  0  0  0  0  0  0  0  0  0  0
    2.9548   -1.3716    0.1232 C   0  0  0  0  0  0  0  0  0  0  0  0
    4.2361   -0.8293    0.1942 C   0  0  0  0  0  0  0  0  0  0  0  0
    0.5502   -1.0589   -0.4270 N   0  0  0  0  0  0  0  0  0  0  0  0
    0.1098   -2.3652   -0.1024 C   0  0  0  0  0  0  0  0  0  0  0  0
    0.8692   -3.2313    0.2876 O   0  0  0  0  0  0  0  0  0  0  0  0
   -1.3335   -2.5801   -0.2799 C   0  0  0  0  0  0  0  0  0  0  0  0
   -1.8971   -3.8568   -0.6318 C   0  0  0  0  0  0  0  0  0  0  0  0
   -3.2446   -3.7552   -0.7372 N   0  0  0  0  0  0  0  0  0  0  0  0
   -3.5594   -2.4571   -0.4496 N   0  0  0  0  0  0  0  0  0  0  0  0
   -2.4231   -1.6964   -0.1690 C   0  0  0  0  0  0  0  0  0  0  0  0
   -2.4933   -0.2940    0.1977 C   0  0  0  0  0  0  0  0  0  0  0  0
   -2.9491    0.6629   -0.7272 C   0  0  0  0  0  0  0  0  0  0  0  0
   -3.0230    2.0018   -0.3721 C   0  0  0  0  0  0  0  0  0  0  0  0
   -3.5731    3.1672   -1.4961 Cl  0  0  0  0  0  0  0  0  0  0  0  0
   -2.6433    2.4207    0.9314 C   0  0  0  0  0  0  0  0  0  0  0  0
   -2.6951    3.7081    1.3453 O   0  0  0  0  0  0  0  0  0  0  0  0
   -2.1852    1.4937    1.8695 C   0  0  0  0  0  0  0  0  0  0  0  0
   -2.1122    0.1436    1.4943 C   0  0  0  0  0  0  0  0  0  0  0  0
   -1.6623   -0.6897    2.4635 O   0  0  0  0  0  0  0  0  0  0  0  0
    7.9092    0.8881    0.3610 H   0  0  0  0  0  0  0  0  0  0  0  0
    7.1482   -0.5809   -0.2634 H   0  0  0  0  0  0  0  0  0  0  0  0
    6.8211   -0.0448    1.3969 H   0  0  0  0  0  0  0  0  0  0  0  0
    3.5981    2.3257   -0.9334 H   0  0  0  0  0  0  0  0  0  0  0  0
    1.3027    1.3928   -1.0717 H   0  0  0  0  0  0  0  0  0  0  0  0
    2.7818   -2.4125    0.4191 H   0  0  0  0  0  0  0  0  0  0  0  0
    5.0533   -1.4596    0.5500 H   0  0  0  0  0  0  0  0  0  0  0  0
   -0.1401   -0.3911   -0.7873 H   0  0  0  0  0  0  0  0  0  0  0  0
   -1.3509   -4.7779   -0.7924 H   0  0  0  0  0  0  0  0  0  0  0  0
   -4.5235   -2.1480   -0.4599 H   0  0  0  0  0  0  0  0  0  0  0  0
   -3.2410    0.3485   -1.7342 H   0  0  0  0  0  0  0  0  0  0  0  0
   -3.0200    4.3444    0.6453 H   0  0  0  0  0  0  0  0  0  0  0  0
   -1.8866    1.8089    2.8718 H   0  0  0  0  0  0  0  0  0  0  0  0
   -1.5754   -1.6416    2.1635 H   0  0  0  0  0  0  0  0  0  0  0  0
  1  2  2  0  0  0  0
  2  3  1  0  0  0  0
  3 29  1  0  0  0  0
  4  2  1  0  0  0  0
  4  9  2  0  0  0  0
  5  4  1  0  0  0  0
  6  5  2  0  0  0  0
  6  7  1  0  0  0  0
  7  8  2  0  0  0  0
  8  9  1  0  0  0  0
  8 32  1  0  0  0  0
  9 33  1  0  0  0  0
 10  7  1  0  0  0  0
 10 11  1  0  0  0  0
 11 12  2  0  0  0  0
 13 17  2  0  0  0  0
 13 11  1  0  0  0  0
 14 13  1  0  0  0  0
 15 14  2  0  0  0  0
 15 16  1  0  0  0  0
 16 17  1  0  0  0  0
 17 18  1  0  0  0  0
 18 25  2  0  0  0  0
 19 20  2  0  0  0  0
 19 18  1  0  0  0  0
 20 22  1  0  0  0  0
 21 20  1  0  0  0  0
 22 23  1  0  0  0  0
 22 24  2  0  0  0  0
 24 39  1  0  0  0  0
 25 24  1  0  0  0  0
 25 26  1  0  0  0  0
 27  3  1  0  0  0  0
 28  3  1  0  0  0  0
 30  5  1  0  0  0  0
 31  6  1  0  0  0  0
 34 10  1  0  0  0  0
 35 14  1  0  0  0  0
 36 16  1  0  0  0  0
 37 19  1  0  0  0  0
 38 23  1  0  0  0  0
 40 26  1  0  0  0  0
M  END
