omegapdb_1qxw_09.log
 OpenBabel10161801213D
Gaussian 16 # PM6 Opt
 36 36  0  0  1  0  0  0  0  0999 V2000
   -4.2548   -0.8617   -0.9511 C   0  0  0  0  0  0  0  0  0  0  0  0
   -4.3268   -1.3127    0.4962 C   0  0  0  0  0  0  0  0  0  0  0  0
   -3.0252   -0.7489   -0.0506 C   0  0  0  0  0  0  0  0  0  0  0  0
   -2.5594    0.5400    0.4668 N   0  0  0  0  0  0  0  0  0  0  0  0
   -1.4870    1.1407   -0.3779 C   0  0  0  0  0  0  0  0  0  0  0  0
   -0.1220    0.5577    0.0545 C   0  0  0  0  0  0  0  0  0  0  0  0
    1.1098    1.4053   -0.3948 C   0  0  1  0  0  0  0  0  0  0  0  0
    0.9138    2.7829    0.1370 N   0  0  0  0  0  0  0  0  0  0  0  0
    2.4360    0.7580    0.0605 C   0  0  0  0  0  0  0  0  0  0  0  0
    2.9361   -0.3051   -0.9246 C   0  0  0  0  0  0  0  0  0  0  0  0
    4.0488   -1.1768   -0.3262 C   0  0  0  0  0  0  0  0  0  0  0  0
    3.5203   -2.1948    0.6822 C   0  0  0  0  0  0  0  0  0  0  0  0
   -0.0664   -0.7451   -0.5367 O   0  0  0  0  0  0  0  0  0  0  0  0
    0.0121    0.3678    1.4521 O   0  0  0  0  0  0  0  0  0  0  0  0
   -4.2669   -1.6026   -1.7458 H   0  0  0  0  0  0  0  0  0  0  0  0
   -4.7935    0.0284   -1.2602 H   0  0  0  0  0  0  0  0  0  0  0  0
   -4.3879   -2.3736    0.7271 H   0  0  0  0  0  0  0  0  0  0  0  0
   -4.9164   -0.7395    1.2075 H   0  0  0  0  0  0  0  0  0  0  0  0
   -2.1740   -1.4318   -0.2356 H   0  0  0  0  0  0  0  0  0  0  0  0
   -3.3317    1.2048    0.5771 H   0  0  0  0  0  0  0  0  0  0  0  0
   -1.6205    0.9637   -1.4677 H   0  0  0  0  0  0  0  0  0  0  0  0
   -1.4717    2.2458   -0.2262 H   0  0  0  0  0  0  0  0  0  0  0  0
    1.0852    1.4701   -1.5151 H   0  0  0  0  0  0  0  0  0  0  0  0
    0.8448    2.7611    1.1548 H   0  0  0  0  0  0  0  0  0  0  0  0
    1.7060    3.3735   -0.0992 H   0  0  0  0  0  0  0  0  0  0  0  0
    2.3027    0.3147    1.0714 H   0  0  0  0  0  0  0  0  0  0  0  0
    3.2149    1.5333    0.1866 H   0  0  0  0  0  0  0  0  0  0  0  0
    2.0919   -0.9499   -1.2525 H   0  0  0  0  0  0  0  0  0  0  0  0
    3.3046    0.1850   -1.8466 H   0  0  0  0  0  0  0  0  0  0  0  0
    4.5751   -1.7077   -1.1446 H   0  0  0  0  0  0  0  0  0  0  0  0
    4.8140   -0.5361    0.1544 H   0  0  0  0  0  0  0  0  0  0  0  0
    4.3390   -2.7641    1.1368 H   0  0  0  0  0  0  0  0  0  0  0  0
    2.8430   -2.9165    0.2125 H   0  0  0  0  0  0  0  0  0  0  0  0
    2.9699   -1.7080    1.4970 H   0  0  0  0  0  0  0  0  0  0  0  0
    0.6730   -1.2728   -0.1524 H   0  0  0  0  0  0  0  0  0  0  0  0
   -0.8591    0.1102    1.8609 H   0  0  0  0  0  0  0  0  0  0  0  0
  1  3  1  0  0  0  0
  1  2  1  0  0  0  0
  2 17  1  0  0  0  0
  2 18  1  0  0  0  0
  3  4  1  0  0  0  0
  3  2  1  0  0  0  0
  4 20  1  0  0  0  0
  5 22  1  0  0  0  0
  5  6  1  0  0  0  0
  5  4  1  0  0  0  0
  6 14  1  0  0  0  0
  7 23  1  6  0  0  0
  7  6  1  0  0  0  0
  7  9  1  0  0  0  0
  7  8  1  0  0  0  0
  8 24  1  0  0  0  0
  9 27  1  0  0  0  0
  9 26  1  0  0  0  0
 10 11  1  0  0  0  0
 10  9  1  0  0  0  0
 11 31  1  0  0  0  0
 11 12  1  0  0  0  0
 12 32  1  0  0  0  0
 12 34  1  0  0  0  0
 13 35  1  0  0  0  0
 13  6  1  0  0  0  0
 14 36  1  0  0  0  0
 15  1  1  0  0  0  0
 16  1  1  0  0  0  0
 19  3  1  0  0  0  0
 21  5  1  0  0  0  0
 25  8  1  0  0  0  0
 28 10  1  0  0  0  0
 29 10  1  0  0  0  0
 30 11  1  0  0  0  0
 33 12  1  0  0  0  0
M  END
