omegapdb_2f7p_02.log
 OpenBabel10161801213D
Gaussian 16 # PM6 Opt
 34 35  0  0  1  0  0  0  0  0999 V2000
   -0.6120   -0.5341   -0.1261 C   0  0  1  0  0  0  0  0  0  0  0  0
    0.0538   -1.4464    0.8275 N   0  0  0  0  0  0  0  0  0  0  0  0
    1.2095   -0.8668    1.5714 C   0  0  0  0  0  0  0  0  0  0  0  0
    2.3656   -0.5320    0.6582 C   0  0  0  0  0  0  0  0  0  0  0  0
    2.6850   -1.3546   -0.4318 C   0  0  0  0  0  0  0  0  0  0  0  0
    3.7724   -1.0403   -1.2506 C   0  0  0  0  0  0  0  0  0  0  0  0
    4.5518    0.0900   -0.9831 C   0  0  0  0  0  0  0  0  0  0  0  0
    4.2426    0.9045    0.1105 C   0  0  0  0  0  0  0  0  0  0  0  0
    3.1535    0.5973    0.9310 C   0  0  0  0  0  0  0  0  0  0  0  0
   -1.9251   -1.2028   -0.6396 C   0  0  1  0  0  0  0  0  0  0  0  0
   -2.6576   -1.8507    0.4058 O   0  0  0  0  0  0  0  0  0  0  0  0
   -2.7990   -0.0172   -1.1294 C   0  0  1  0  0  0  0  0  0  0  0  0
   -4.1881   -0.3139   -1.0424 O   0  0  0  0  0  0  0  0  0  0  0  0
   -2.4858    1.1132   -0.1022 C   0  0  1  0  0  0  0  0  0  0  0  0
   -3.3203    0.8950    1.0541 O   0  0  0  0  0  0  0  0  0  0  0  0
   -1.0545    0.8600    0.3985 C   0  0  2  0  0  0  0  0  0  0  0  0
   -0.0321    2.1988   -0.2836 S   0  0  0  0  0  0  0  0  0  0  0  0
    0.0855   -0.4154   -1.0005 H   0  0  0  0  0  0  0  0  0  0  0  0
   -0.6276   -1.8410    1.4908 H   0  0  0  0  0  0  0  0  0  0  0  0
    0.9315    0.0155    2.1918 H   0  0  0  0  0  0  0  0  0  0  0  0
    1.5543   -1.6538    2.2895 H   0  0  0  0  0  0  0  0  0  0  0  0
    2.0790   -2.2404   -0.6332 H   0  0  0  0  0  0  0  0  0  0  0  0
    4.0156   -1.6806   -2.0976 H   0  0  0  0  0  0  0  0  0  0  0  0
    5.3989    0.3324   -1.6219 H   0  0  0  0  0  0  0  0  0  0  0  0
    4.8528    1.7805    0.3264 H   0  0  0  0  0  0  0  0  0  0  0  0
    2.9307    1.2315    1.7875 H   0  0  0  0  0  0  0  0  0  0  0  0
   -1.7537   -2.0100   -1.3763 H   0  0  0  0  0  0  0  0  0  0  0  0
   -2.8744   -1.1889    1.1278 H   0  0  0  0  0  0  0  0  0  0  0  0
   -2.6184    0.2839   -2.1790 H   0  0  0  0  0  0  0  0  0  0  0  0
   -4.3249   -1.1680   -0.5384 H   0  0  0  0  0  0  0  0  0  0  0  0
   -2.6882    2.1305   -0.4906 H   0  0  0  0  0  0  0  0  0  0  0  0
   -4.2712    0.8915    0.7643 H   0  0  0  0  0  0  0  0  0  0  0  0
   -1.0400    0.9075    1.5135 H   0  0  0  0  0  0  0  0  0  0  0  0
    1.1919    1.6237   -0.1908 H   0  0  0  0  0  0  0  0  0  0  0  0
  1 18  1  6  0  0  0
  1 16  1  0  0  0  0
  1  2  1  0  0  0  0
  2 19  1  0  0  0  0
  2  3  1  0  0  0  0
  3 20  1  0  0  0  0
  3 21  1  0  0  0  0
  4  9  1  0  0  0  0
  4  3  1  0  0  0  0
  5  4  2  0  0  0  0
  6  7  2  0  0  0  0
  6  5  1  0  0  0  0
  7  8  1  0  0  0  0
  8 25  1  0  0  0  0
  8  9  2  0  0  0  0
  9 26  1  0  0  0  0
 10 27  1  6  0  0  0
 10  1  1  0  0  0  0
 10 11  1  0  0  0  0
 11 28  1  0  0  0  0
 12 29  1  6  0  0  0
 12 13  1  0  0  0  0
 12 10  1  0  0  0  0
 12 14  1  0  0  0  0
 13 30  1  0  0  0  0
 14 31  1  6  0  0  0
 14 16  1  0  0  0  0
 14 15  1  0  0  0  0
 16 33  1  1  0  0  0
 17 34  1  0  0  0  0
 17 16  1  0  0  0  0
 22  5  1  0  0  0  0
 23  6  1  0  0  0  0
 24  7  1  0  0  0  0
 32 15  1  0  0  0  0
M  END
