omegapdb_1gs5_20.log
 OpenBabel10161801213D
Gaussian 16 # PM6 Opt
 24 23  0  0  1  0  0  0  0  0999 V2000
    0.5613    0.2964   -0.6923 C   0  0  2  0  0  0  0  0  0  0  0  0
    0.7736    1.6441    0.0433 C   0  0  0  0  0  0  0  0  0  0  0  0
   -0.0769    2.2932    0.6017 O   0  0  0  0  0  0  0  0  0  0  0  0
    2.0361    2.1385    0.0145 O   0  0  0  0  0  0  0  0  0  0  0  0
   -0.9189    0.0104   -0.9817 C   0  0  0  0  0  0  0  0  0  0  0  0
   -1.8369    0.1648    0.2338 C   0  0  0  0  0  0  0  0  0  0  0  0
   -3.1422   -0.5542    0.0189 C   0  0  0  0  0  0  0  0  0  0  0  0
   -3.3417   -1.5317   -0.6552 O   0  0  0  0  0  0  0  0  0  0  0  0
   -4.2268   -0.0448    0.7012 O   0  0  0  0  0  0  0  0  0  0  0  0
    1.1690   -0.7934    0.1042 N   0  0  0  0  0  0  0  0  0  0  0  0
    2.5517   -1.0076    0.0743 C   0  0  0  0  0  0  0  0  0  0  0  0
    3.2699   -0.2050   -0.5146 O   0  0  0  0  0  0  0  0  0  0  0  0
    3.0482   -2.2167    0.7964 C   0  0  0  0  0  0  0  0  0  0  0  0
    1.1087    0.3688   -1.6808 H   0  0  0  0  0  0  0  0  0  0  0  0
    2.7439    1.5256   -0.3962 H   0  0  0  0  0  0  0  0  0  0  0  0
   -1.2637    0.6942   -1.7887 H   0  0  0  0  0  0  0  0  0  0  0  0
   -1.0244   -1.0146   -1.4094 H   0  0  0  0  0  0  0  0  0  0  0  0
   -1.3584   -0.2249    1.1576 H   0  0  0  0  0  0  0  0  0  0  0  0
   -1.9828    1.2526    0.4479 H   0  0  0  0  0  0  0  0  0  0  0  0
   -4.0556    0.7673    1.2299 H   0  0  0  0  0  0  0  0  0  0  0  0
    0.5341   -1.4129    0.5994 H   0  0  0  0  0  0  0  0  0  0  0  0
    4.1415   -2.3156    0.6614 H   0  0  0  0  0  0  0  0  0  0  0  0
    2.8712   -2.1604    1.8811 H   0  0  0  0  0  0  0  0  0  0  0  0
    2.5980   -3.1509    0.4308 H   0  0  0  0  0  0  0  0  0  0  0  0
  1 14  1  6  0  0  0
  1  2  1  0  0  0  0
  1 10  1  0  0  0  0
  2  3  2  0  0  0  0
  4  2  1  0  0  0  0
  5  1  1  0  0  0  0
  5  6  1  0  0  0  0
  6 19  1  0  0  0  0
  6 18  1  0  0  0  0
  7  6  1  0  0  0  0
  7  9  1  0  0  0  0
  8  7  2  0  0  0  0
  9 20  1  0  0  0  0
 10 21  1  0  0  0  0
 11 10  1  0  0  0  0
 11 13  1  0  0  0  0
 12 11  2  0  0  0  0
 13 23  1  0  0  0  0
 15  4  1  0  0  0  0
 16  5  1  0  0  0  0
 17  5  1  0  0  0  0
 22 13  1  0  0  0  0
 24 13  1  0  0  0  0
M  END
