omegapdb_2byh_18.log
 OpenBabel10161801213D
Gaussian 16 # PM6 Opt
 40 42  0  0  0  0  0  0  0  0999 V2000
   -6.0219    0.4842   -2.4436 O   0  0  0  0  0  0  0  0  0  0  0  0
   -6.1107   -0.0170   -1.3406 C   0  0  0  0  0  0  0  0  0  0  0  0
   -7.4540   -0.3372   -0.7463 C   0  0  0  0  0  0  0  0  0  0  0  0
   -4.8948   -0.3291   -0.5368 C   0  0  0  0  0  0  0  0  0  0  0  0
   -4.9442   -0.9722    0.7088 C   0  0  0  0  0  0  0  0  0  0  0  0
   -3.7763   -1.2397    1.4179 C   0  0  0  0  0  0  0  0  0  0  0  0
   -2.5273   -0.8564    0.8792 C   0  0  0  0  0  0  0  0  0  0  0  0
   -2.4658   -0.2231   -0.3770 C   0  0  0  0  0  0  0  0  0  0  0  0
   -3.6446    0.0374   -1.0692 C   0  0  0  0  0  0  0  0  0  0  0  0
   -1.3597   -1.1790    1.6233 N   0  0  0  0  0  0  0  0  0  0  0  0
   -0.0720   -0.5690    1.5944 C   0  0  0  0  0  0  0  0  0  0  0  0
    0.8222   -1.2326    2.0971 O   0  0  0  0  0  0  0  0  0  0  0  0
    0.0843    0.7706    1.0471 C   0  0  0  0  0  0  0  0  0  0  0  0
   -0.8699    1.8421    1.1748 C   0  0  0  0  0  0  0  0  0  0  0  0
   -0.3619    2.9825    0.6546 N   0  0  0  0  0  0  0  0  0  0  0  0
    0.8853    2.6729    0.1906 N   0  0  0  0  0  0  0  0  0  0  0  0
    1.2212    1.3350    0.4206 C   0  0  0  0  0  0  0  0  0  0  0  0
    2.5011    0.7741    0.0175 C   0  0  0  0  0  0  0  0  0  0  0  0
    2.6652   -0.6227   -0.1160 C   0  0  0  0  0  0  0  0  0  0  0  0
    3.8858   -1.1706   -0.4910 C   0  0  0  0  0  0  0  0  0  0  0  0
    4.0700   -2.8570   -0.6651 Cl  0  0  0  0  0  0  0  0  0  0  0  0
    4.9994   -0.3307   -0.7255 C   0  0  0  0  0  0  0  0  0  0  0  0
    6.1501   -0.9595   -1.0765 O   0  0  0  0  0  0  0  0  0  0  0  0
    4.8858    1.0588   -0.6021 C   0  0  0  0  0  0  0  0  0  0  0  0
    3.6369    1.5800   -0.2374 C   0  0  0  0  0  0  0  0  0  0  0  0
    3.4613    2.9364   -0.1282 O   0  0  0  0  0  0  0  0  0  0  0  0
   -8.2616   -0.0272   -1.4285 H   0  0  0  0  0  0  0  0  0  0  0  0
   -7.6176    0.1843    0.2048 H   0  0  0  0  0  0  0  0  0  0  0  0
   -7.5782   -1.4130   -0.5710 H   0  0  0  0  0  0  0  0  0  0  0  0
   -5.9023   -1.2703    1.1380 H   0  0  0  0  0  0  0  0  0  0  0  0
   -3.8312   -1.7343    2.3852 H   0  0  0  0  0  0  0  0  0  0  0  0
   -1.5072    0.0533   -0.8150 H   0  0  0  0  0  0  0  0  0  0  0  0
   -3.6109    0.5300   -2.0487 H   0  0  0  0  0  0  0  0  0  0  0  0
   -1.4226   -2.0091    2.2301 H   0  0  0  0  0  0  0  0  0  0  0  0
   -1.8543    1.7830    1.6174 H   0  0  0  0  0  0  0  0  0  0  0  0
    1.4721    3.3956   -0.2204 H   0  0  0  0  0  0  0  0  0  0  0  0
    1.8213   -1.2956    0.0890 H   0  0  0  0  0  0  0  0  0  0  0  0
    6.9041   -0.3261   -1.2199 H   0  0  0  0  0  0  0  0  0  0  0  0
    5.7333    1.7093   -0.7805 H   0  0  0  0  0  0  0  0  0  0  0  0
    4.3042    3.4444   -0.2533 H   0  0  0  0  0  0  0  0  0  0  0  0
  1  2  2  0  0  0  0
  2  3  1  0  0  0  0
  2  4  1  0  0  0  0
  3 29  1  0  0  0  0
  3 28  1  0  0  0  0
  4  5  1  0  0  0  0
  5 30  1  0  0  0  0
  5  6  2  0  0  0  0
  6 31  1  0  0  0  0
  7  6  1  0  0  0  0
  7 10  1  0  0  0  0
  8  7  2  0  0  0  0
  9  4  2  0  0  0  0
  9  8  1  0  0  0  0
 10 34  1  0  0  0  0
 11 10  1  0  0  0  0
 11 12  2  0  0  0  0
 13 14  1  0  0  0  0
 13 11  1  0  0  0  0
 14 35  1  0  0  0  0
 15 14  2  0  0  0  0
 16 17  1  0  0  0  0
 16 15  1  0  0  0  0
 17 13  2  0  0  0  0
 18 17  1  0  0  0  0
 19 18  1  0  0  0  0
 19 37  1  0  0  0  0
 20 19  2  0  0  0  0
 21 20  1  0  0  0  0
 22 24  2  0  0  0  0
 22 20  1  0  0  0  0
 23 22  1  0  0  0  0
 24 25  1  0  0  0  0
 25 26  1  0  0  0  0
 25 18  2  0  0  0  0
 27  3  1  0  0  0  0
 32  8  1  0  0  0  0
 33  9  1  0  0  0  0
 36 16  1  0  0  0  0
 38 23  1  0  0  0  0
 39 24  1  0  0  0  0
 40 26  1  0  0  0  0
M  END
