omegapdb_2f7p_01.log
 OpenBabel10161801213D
Gaussian 16 # PM6 Opt
 34 35  0  0  1  0  0  0  0  0999 V2000
   -1.1478   -0.4944    0.7831 C   0  0  1  0  0  0  0  0  0  0  0  0
    0.2158   -0.0912    0.3248 N   0  0  0  0  0  0  0  0  0  0  0  0
    1.2241   -1.1855    0.4983 C   0  0  0  0  0  0  0  0  0  0  0  0
    2.5927   -0.6374    0.1713 C   0  0  0  0  0  0  0  0  0  0  0  0
    3.5162   -0.3888    1.1965 C   0  0  0  0  0  0  0  0  0  0  0  0
    4.7847    0.1108    0.8873 C   0  0  0  0  0  0  0  0  0  0  0  0
    5.1344    0.3683   -0.4419 C   0  0  0  0  0  0  0  0  0  0  0  0
    4.2111    0.1269   -1.4647 C   0  0  0  0  0  0  0  0  0  0  0  0
    2.9426   -0.3743   -1.1613 C   0  0  0  0  0  0  0  0  0  0  0  0
   -1.9536    0.7616    1.2629 C   0  0  1  0  0  0  0  0  0  0  0  0
   -1.0687    1.7548    1.7556 O   0  0  0  0  0  0  0  0  0  0  0  0
   -2.7659    1.2681    0.0305 C   0  0  1  0  0  0  0  0  0  0  0  0
   -2.2844    2.5667   -0.2992 O   0  0  0  0  0  0  0  0  0  0  0  0
   -2.5004    0.2550   -1.1254 C   0  0  1  0  0  0  0  0  0  0  0  0
   -1.5403    0.8554   -2.0016 O   0  0  0  0  0  0  0  0  0  0  0  0
   -1.9195   -0.9997   -0.4590 C   0  0  2  0  0  0  0  0  0  0  0  0
   -3.2357   -2.1610   -0.0121 S   0  0  0  0  0  0  0  0  0  0  0  0
   -1.1208   -1.2640    1.5910 H   0  0  0  0  0  0  0  0  0  0  0  0
    0.5217    0.7482    0.8535 H   0  0  0  0  0  0  0  0  0  0  0  0
    1.2106   -1.6313    1.5187 H   0  0  0  0  0  0  0  0  0  0  0  0
    0.9653   -2.0135   -0.2016 H   0  0  0  0  0  0  0  0  0  0  0  0
    3.2502   -0.5818    2.2341 H   0  0  0  0  0  0  0  0  0  0  0  0
    5.5010    0.3012    1.6850 H   0  0  0  0  0  0  0  0  0  0  0  0
    6.1224    0.7572   -0.6803 H   0  0  0  0  0  0  0  0  0  0  0  0
    4.4806    0.3304   -2.4999 H   0  0  0  0  0  0  0  0  0  0  0  0
    2.2214   -0.5549   -1.9568 H   0  0  0  0  0  0  0  0  0  0  0  0
   -2.6054    0.5071    2.1244 H   0  0  0  0  0  0  0  0  0  0  0  0
   -1.0960    2.5659    1.1542 H   0  0  0  0  0  0  0  0  0  0  0  0
   -3.8406    1.4069    0.2585 H   0  0  0  0  0  0  0  0  0  0  0  0
   -1.7669    2.5271   -1.1685 H   0  0  0  0  0  0  0  0  0  0  0  0
   -3.3787    0.0846   -1.7810 H   0  0  0  0  0  0  0  0  0  0  0  0
   -0.6119    0.7210   -1.6440 H   0  0  0  0  0  0  0  0  0  0  0  0
   -1.2485   -1.5481   -1.1658 H   0  0  0  0  0  0  0  0  0  0  0  0
   -3.9065   -1.4206    0.8949 H   0  0  0  0  0  0  0  0  0  0  0  0
  1 10  1  0  0  0  0
  1 18  1  1  0  0  0
  2  3  1  0  0  0  0
  2  1  1  0  0  0  0
  2 19  1  0  0  0  0
  3 20  1  0  0  0  0
  4  3  1  0  0  0  0
  4  5  2  0  0  0  0
  5 22  1  0  0  0  0
  6  5  1  0  0  0  0
  6 23  1  0  0  0  0
  7  6  2  0  0  0  0
  8  9  2  0  0  0  0
  8  7  1  0  0  0  0
  9  4  1  0  0  0  0
 10 11  1  0  0  0  0
 10 27  1  1  0  0  0
 12 29  1  1  0  0  0
 12 10  1  0  0  0  0
 13 12  1  0  0  0  0
 14 31  1  6  0  0  0
 14 16  1  0  0  0  0
 14 12  1  0  0  0  0
 15 32  1  0  0  0  0
 15 14  1  0  0  0  0
 16 33  1  6  0  0  0
 16 17  1  0  0  0  0
 16  1  1  0  0  0  0
 17 34  1  0  0  0  0
 21  3  1  0  0  0  0
 24  7  1  0  0  0  0
 25  8  1  0  0  0  0
 26  9  1  0  0  0  0
 28 11  1  0  0  0  0
 30 13  1  0  0  0  0
M  END
