omegapdb_1qxw_19.log
 OpenBabel10161801213D
Gaussian 16 # PM6 Opt
 36 36  0  0  1  0  0  0  0  0999 V2000
    3.7292   -1.9539   -0.0340 C   0  0  0  0  0  0  0  0  0  0  0  0
    4.4546   -0.6440    0.2131 C   0  0  0  0  0  0  0  0  0  0  0  0
    2.9269   -0.6805    0.1840 C   0  0  0  0  0  0  0  0  0  0  0  0
    2.1601   -0.1487   -0.9456 N   0  0  0  0  0  0  0  0  0  0  0  0
    1.6707    1.2358   -0.6921 C   0  0  0  0  0  0  0  0  0  0  0  0
    0.3601    1.2019    0.1334 C   0  0  0  0  0  0  0  0  0  0  0  0
   -0.7158    0.1765   -0.3497 C   0  0  1  0  0  0  0  0  0  0  0  0
   -0.5107   -1.0465    0.4858 N   0  0  0  0  0  0  0  0  0  0  0  0
   -2.1461    0.7186   -0.1767 C   0  0  0  0  0  0  0  0  0  0  0  0
   -3.1849   -0.0198   -1.0288 C   0  0  0  0  0  0  0  0  0  0  0  0
   -3.7202   -1.3119   -0.3942 C   0  0  0  0  0  0  0  0  0  0  0  0
   -4.6310   -1.0515    0.8027 C   0  0  0  0  0  0  0  0  0  0  0  0
    0.7064    1.0917    1.5050 O   0  0  0  0  0  0  0  0  0  0  0  0
   -0.1854    2.5278    0.0217 O   0  0  0  0  0  0  0  0  0  0  0  0
    3.7723   -2.4119   -1.0191 H   0  0  0  0  0  0  0  0  0  0  0  0
    3.7261   -2.7203    0.7373 H   0  0  0  0  0  0  0  0  0  0  0  0
    5.0093   -0.1797   -0.5962 H   0  0  0  0  0  0  0  0  0  0  0  0
    4.9660   -0.4832    1.1584 H   0  0  0  0  0  0  0  0  0  0  0  0
    2.3837   -0.5427    1.1371 H   0  0  0  0  0  0  0  0  0  0  0  0
    2.7095   -0.1692   -1.8114 H   0  0  0  0  0  0  0  0  0  0  0  0
    2.4031    1.8767   -0.1518 H   0  0  0  0  0  0  0  0  0  0  0  0
    1.4568    1.7420   -1.6592 H   0  0  0  0  0  0  0  0  0  0  0  0
   -0.5267   -0.0155   -1.4388 H   0  0  0  0  0  0  0  0  0  0  0  0
    0.2761   -1.5878    0.1250 H   0  0  0  0  0  0  0  0  0  0  0  0
   -1.3410   -1.6429    0.4520 H   0  0  0  0  0  0  0  0  0  0  0  0
   -2.1489    1.7974   -0.4555 H   0  0  0  0  0  0  0  0  0  0  0  0
   -2.4354    0.6979    0.8923 H   0  0  0  0  0  0  0  0  0  0  0  0
   -2.7613   -0.2494   -2.0262 H   0  0  0  0  0  0  0  0  0  0  0  0
   -4.0348    0.6657   -1.2245 H   0  0  0  0  0  0  0  0  0  0  0  0
   -2.8734   -1.9603   -0.0824 H   0  0  0  0  0  0  0  0  0  0  0  0
   -4.2736   -1.8902   -1.1608 H   0  0  0  0  0  0  0  0  0  0  0  0
   -5.5062   -0.4548    0.5215 H   0  0  0  0  0  0  0  0  0  0  0  0
   -4.9965   -1.9883    1.2372 H   0  0  0  0  0  0  0  0  0  0  0  0
   -4.1057   -0.5037    1.5949 H   0  0  0  0  0  0  0  0  0  0  0  0
    0.1729    0.3862    1.9656 H   0  0  0  0  0  0  0  0  0  0  0  0
   -0.0473    3.0171    0.8637 H   0  0  0  0  0  0  0  0  0  0  0  0
  1  3  1  0  0  0  0
  1  2  1  0  0  0  0
  1 16  1  0  0  0  0
  2 18  1  0  0  0  0
  3  2  1  0  0  0  0
  3 19  1  0  0  0  0
  4  5  1  0  0  0  0
  4  3  1  0  0  0  0
  5 21  1  0  0  0  0
  5  6  1  0  0  0  0
  6 13  1  0  0  0  0
  7 23  1  6  0  0  0
  7  9  1  0  0  0  0
  7  6  1  0  0  0  0
  7  8  1  0  0  0  0
  9 27  1  0  0  0  0
 10 11  1  0  0  0  0
 10  9  1  0  0  0  0
 11 30  1  0  0  0  0
 11 12  1  0  0  0  0
 12 33  1  0  0  0  0
 12 34  1  0  0  0  0
 13 35  1  0  0  0  0
 14  6  1  0  0  0  0
 14 36  1  0  0  0  0
 15  1  1  0  0  0  0
 17  2  1  0  0  0  0
 20  4  1  0  0  0  0
 22  5  1  0  0  0  0
 24  8  1  0  0  0  0
 25  8  1  0  0  0  0
 26  9  1  0  0  0  0
 28 10  1  0  0  0  0
 29 10  1  0  0  0  0
 31 11  1  0  0  0  0
 32 12  1  0  0  0  0
M  END
