omegapdb_1gs5_19.log
 OpenBabel10161801213D
Gaussian 16 # PM6 Opt
 24 23  0  0  1  0  0  0  0  0999 V2000
    0.3920   -0.5757    0.0023 C   0  0  2  0  0  0  0  0  0  0  0  0
    0.3527   -2.1104    0.0851 C   0  0  0  0  0  0  0  0  0  0  0  0
    1.2892   -2.8471   -0.1026 O   0  0  0  0  0  0  0  0  0  0  0  0
   -0.8554   -2.6535    0.3902 O   0  0  0  0  0  0  0  0  0  0  0  0
   -0.4222   -0.0965   -1.2224 C   0  0  0  0  0  0  0  0  0  0  0  0
   -1.2820    1.1181   -0.8670 C   0  0  0  0  0  0  0  0  0  0  0  0
   -2.4027    0.7450    0.0608 C   0  0  0  0  0  0  0  0  0  0  0  0
   -2.5959   -0.3278    0.5900 O   0  0  0  0  0  0  0  0  0  0  0  0
   -3.3151    1.7289    0.3524 O   0  0  0  0  0  0  0  0  0  0  0  0
    1.8008   -0.1364   -0.0631 N   0  0  0  0  0  0  0  0  0  0  0  0
    2.1439    1.1877    0.2277 C   0  0  0  0  0  0  0  0  0  0  0  0
    1.2782    2.0127    0.4845 O   0  0  0  0  0  0  0  0  0  0  0  0
    3.6118    1.4876    0.1892 C   0  0  0  0  0  0  0  0  0  0  0  0
   -0.0634   -0.1589    0.9505 H   0  0  0  0  0  0  0  0  0  0  0  0
   -1.6051   -1.9875    0.5500 H   0  0  0  0  0  0  0  0  0  0  0  0
    0.2624    0.1645   -2.0567 H   0  0  0  0  0  0  0  0  0  0  0  0
   -1.0628   -0.9142   -1.6153 H   0  0  0  0  0  0  0  0  0  0  0  0
   -0.6237    1.8948   -0.3793 H   0  0  0  0  0  0  0  0  0  0  0  0
   -1.6701    1.5963   -1.7888 H   0  0  0  0  0  0  0  0  0  0  0  0
   -3.1245    2.6144   -0.0378 H   0  0  0  0  0  0  0  0  0  0  0  0
    2.4921   -0.8486   -0.3077 H   0  0  0  0  0  0  0  0  0  0  0  0
    4.0574    1.3029   -0.7976 H   0  0  0  0  0  0  0  0  0  0  0  0
    4.1786    0.9001    0.9262 H   0  0  0  0  0  0  0  0  0  0  0  0
    3.7856    2.5511    0.4281 H   0  0  0  0  0  0  0  0  0  0  0  0
  1  2  1  0  0  0  0
  1 14  1  1  0  0  0
  2  4  1  0  0  0  0
  3  2  2  0  0  0  0
  4 15  1  0  0  0  0
  5  6  1  0  0  0  0
  5  1  1  0  0  0  0
  6 18  1  0  0  0  0
  6  7  1  0  0  0  0
  7  9  1  0  0  0  0
  7  8  2  0  0  0  0
 10  1  1  0  0  0  0
 10 11  1  0  0  0  0
 11 12  2  0  0  0  0
 13 11  1  0  0  0  0
 13 24  1  0  0  0  0
 13 23  1  0  0  0  0
 16  5  1  0  0  0  0
 17  5  1  0  0  0  0
 19  6  1  0  0  0  0
 20  9  1  0  0  0  0
 21 10  1  0  0  0  0
 22 13  1  0  0  0  0
M  END
