omegapdb_1xom_20.log
 OpenBabel10161801213D
Gaussian 16 # PM6 Opt
 50 52  0  0  1  0  0  0  0  0999 V2000
    6.7781   -0.7897   -0.9657 O   0  0  0  0  0  0  0  0  0  0  0  0
    5.9435   -0.0055   -0.1873 C   0  0  0  0  0  0  0  0  0  0  0  0
    6.4141    0.3964    0.8433 O   0  0  0  0  0  0  0  0  0  0  0  0
    4.5597    0.2638   -0.7631 C   0  0  1  0  0  0  0  0  0  0  0  0
    3.8218   -1.0668   -1.0157 C   0  0  0  0  0  0  0  0  0  0  0  0
    2.3050   -0.8707   -0.9778 C   0  0  0  0  0  0  0  0  0  0  0  0
    1.8109   -0.4383    0.4338 C   0  0  2  0  0  0  0  0  0  0  0  0
    2.8959    0.4018    1.1607 C   0  0  0  0  0  0  0  0  0  0  0  0
    3.7634    1.1907    0.1785 C   0  0  0  0  0  0  0  0  0  0  0  0
    1.5910   -1.6504    1.2521 C   0  0  0  0  0  0  0  0  0  0  0  0
    1.4340   -2.5993    1.8902 N   0  0  0  0  0  0  0  0  0  0  0  0
    0.4737    0.2821    0.2628 C   0  0  0  0  0  0  0  0  0  0  0  0
    0.3453    1.6614    0.4189 C   0  0  0  0  0  0  0  0  0  0  0  0
   -0.8924    2.2942    0.2243 C   0  0  0  0  0  0  0  0  0  0  0  0
   -2.0103    1.5485   -0.1389 C   0  0  0  0  0  0  0  0  0  0  0  0
   -3.2702    2.0690   -0.3709 O   0  0  0  0  0  0  0  0  0  0  0  0
   -3.4762    3.4743   -0.0857 C   0  0  0  0  0  0  0  0  0  0  0  0
   -1.8924    0.1359   -0.3074 C   0  0  0  0  0  0  0  0  0  0  0  0
   -0.6536   -0.4780   -0.1006 C   0  0  0  0  0  0  0  0  0  0  0  0
   -2.8619   -0.7357   -0.7216 O   0  0  0  0  0  0  0  0  0  0  0  0
   -4.2816   -0.3705   -0.6147 C   0  0  0  0  0  0  0  0  0  0  0  0
   -4.9802   -1.5745   -1.2669 C   0  0  0  0  0  0  0  0  0  0  0  0
   -5.9251   -2.1697   -0.2088 C   0  0  0  0  0  0  0  0  0  0  0  0
   -5.9830   -1.1662    0.9599 C   0  0  0  0  0  0  0  0  0  0  0  0
   -4.7151   -0.3051    0.8567 C   0  0  0  0  0  0  0  0  0  0  0  0
    6.3908   -1.1299   -1.7990 H   0  0  0  0  0  0  0  0  0  0  0  0
    4.6955    0.7988   -1.7377 H   0  0  0  0  0  0  0  0  0  0  0  0
    4.1171   -1.4901   -1.9943 H   0  0  0  0  0  0  0  0  0  0  0  0
    4.1133   -1.8220   -0.2547 H   0  0  0  0  0  0  0  0  0  0  0  0
    2.0033   -0.1016   -1.7181 H   0  0  0  0  0  0  0  0  0  0  0  0
    1.7905   -1.7994   -1.2934 H   0  0  0  0  0  0  0  0  0  0  0  0
    2.4283    1.0802    1.9002 H   0  0  0  0  0  0  0  0  0  0  0  0
    3.5520   -0.2626    1.7645 H   0  0  0  0  0  0  0  0  0  0  0  0
    4.4613    1.8439    0.7463 H   0  0  0  0  0  0  0  0  0  0  0  0
    3.1322    1.8694   -0.4282 H   0  0  0  0  0  0  0  0  0  0  0  0
    1.1998    2.2761    0.6978 H   0  0  0  0  0  0  0  0  0  0  0  0
   -0.9587    3.3713    0.3560 H   0  0  0  0  0  0  0  0  0  0  0  0
   -2.8660    4.0896   -0.7530 H   0  0  0  0  0  0  0  0  0  0  0  0
   -4.5440    3.5909   -0.3121 H   0  0  0  0  0  0  0  0  0  0  0  0
   -3.2721    3.6859    0.9676 H   0  0  0  0  0  0  0  0  0  0  0  0
   -0.5924   -1.5608   -0.2240 H   0  0  0  0  0  0  0  0  0  0  0  0
   -4.4293    0.5787   -1.1675 H   0  0  0  0  0  0  0  0  0  0  0  0
   -4.2240   -2.3167   -1.5937 H   0  0  0  0  0  0  0  0  0  0  0  0
   -5.5247   -1.2690   -2.1746 H   0  0  0  0  0  0  0  0  0  0  0  0
   -5.5427   -3.1453    0.1412 H   0  0  0  0  0  0  0  0  0  0  0  0
   -6.9276   -2.3586   -0.6250 H   0  0  0  0  0  0  0  0  0  0  0  0
   -6.8871   -0.5369    0.8867 H   0  0  0  0  0  0  0  0  0  0  0  0
   -6.0408   -1.6834    1.9315 H   0  0  0  0  0  0  0  0  0  0  0  0
   -3.9117   -0.7093    1.5025 H   0  0  0  0  0  0  0  0  0  0  0  0
   -4.8839    0.7332    1.1839 H   0  0  0  0  0  0  0  0  0  0  0  0
  1  2  1  0  0  0  0
  2  3  2  0  0  0  0
  4 27  1  6  0  0  0
  4  2  1  0  0  0  0
  4  9  1  0  0  0  0
  5  6  1  0  0  0  0
  5  4  1  0  0  0  0
  5 29  1  0  0  0  0
  6  7  1  0  0  0  0
  7 12  1  6  0  0  0
  7  8  1  0  0  0  0
  7 10  1  0  0  0  0
  8 33  1  0  0  0  0
  8 32  1  0  0  0  0
  9 34  1  0  0  0  0
  9  8  1  0  0  0  0
 10 11  3  0  0  0  0
 12 13  1  0  0  0  0
 13 36  1  0  0  0  0
 14 37  1  0  0  0  0
 14 13  2  0  0  0  0
 15 14  1  0  0  0  0
 16 15  1  0  0  0  0
 16 17  1  0  0  0  0
 17 40  1  0  0  0  0
 18 15  2  0  0  0  0
 18 19  1  0  0  0  0
 19 12  2  0  0  0  0
 20 21  1  0  0  0  0
 20 18  1  0  0  0  0
 21 25  1  0  0  0  0
 22 21  1  0  0  0  0
 22 23  1  0  0  0  0
 23 45  1  0  0  0  0
 23 24  1  0  0  0  0
 24 48  1  0  0  0  0
 25 24  1  0  0  0  0
 25 50  1  0  0  0  0
 25 49  1  0  0  0  0
 26  1  1  0  0  0  0
 28  5  1  0  0  0  0
 30  6  1  0  0  0  0
 31  6  1  0  0  0  0
 35  9  1  0  0  0  0
 38 17  1  0  0  0  0
 39 17  1  0  0  0  0
 41 19  1  0  0  0  0
 42 21  1  0  0  0  0
 43 22  1  0  0  0  0
 44 22  1  0  0  0  0
 46 23  1  0  0  0  0
 47 24  1  0  0  0  0
M  END
