omegapdb_1v2k_14.log
 OpenBabel10161801213D
Gaussian 16 # PM6 Opt
 61 65  0  0  0  0  0  0  0  0999 V2000
    8.5911    3.2350    0.5484 N   0  0  0  0  0  0  0  0  0  0  0  0
    8.0433    3.2048   -0.6961 C   0  0  0  0  0  0  0  0  0  0  0  0
    6.8615    2.5235   -1.0048 C   0  0  0  0  0  0  0  0  0  0  0  0
    6.1818    1.8268    0.0249 C   0  0  0  0  0  0  0  0  0  0  0  0
    6.7513    1.8531    1.3224 C   0  0  0  0  0  0  0  0  0  0  0  0
    7.9353    2.5624    1.5337 C   0  0  0  0  0  0  0  0  0  0  0  0
    4.9210    1.2351   -0.2121 N   0  0  0  0  0  0  0  0  0  0  0  0
    4.3557    0.2994    0.7980 C   0  0  0  0  0  0  0  0  0  0  0  0
    4.5172   -1.1767    0.4084 C   0  0  0  0  0  0  0  0  0  0  0  0
    3.9393   -1.4724   -0.9868 C   0  0  0  0  0  0  0  0  0  0  0  0
    3.5059   -0.1998   -1.7308 C   0  0  0  0  0  0  0  0  0  0  0  0
    4.5847    0.8868   -1.6308 C   0  0  0  0  0  0  0  0  0  0  0  0
    2.8179   -2.5166   -0.9720 C   0  0  0  0  0  0  0  0  0  0  0  0
    2.9346   -3.5270   -1.6555 O   0  0  0  0  0  0  0  0  0  0  0  0
    1.7162   -2.4105   -0.1100 N   0  0  0  0  0  0  0  0  0  0  0  0
    1.2058   -1.1508    0.4770 C   0  0  0  0  0  0  0  0  0  0  0  0
   -0.0558   -0.6667   -0.2779 C   0  0  0  0  0  0  0  0  0  0  0  0
   -1.1198   -1.7052   -0.3291 N   0  0  0  0  0  0  0  0  0  0  0  0
   -0.5992   -2.9854   -0.8867 C   0  0  0  0  0  0  0  0  0  0  0  0
    0.6773   -3.4796   -0.1759 C   0  0  0  0  0  0  0  0  0  0  0  0
   -2.0656   -1.8630    1.1213 S   0  0  0  0  0  0  0  0  0  0  0  0
   -2.6491   -3.1882    1.0809 O   0  0  0  0  0  0  0  0  0  0  0  0
   -1.2360   -1.4701    2.2486 O   0  0  0  0  0  0  0  0  0  0  0  0
   -3.2941   -0.6656    0.8903 C   0  0  0  0  0  0  0  0  0  0  0  0
   -4.2870   -0.8487   -0.0412 C   0  0  0  0  0  0  0  0  0  0  0  0
   -5.2987    0.1444   -0.2222 C   0  0  0  0  0  0  0  0  0  0  0  0
   -5.2648    1.3196    0.5775 C   0  0  0  0  0  0  0  0  0  0  0  0
   -4.2233    1.4766    1.5461 C   0  0  0  0  0  0  0  0  0  0  0  0
   -3.2649    0.5066    1.6981 C   0  0  0  0  0  0  0  0  0  0  0  0
   -6.2750    2.3171    0.3970 C   0  0  0  0  0  0  0  0  0  0  0  0
   -7.2520    2.1120   -0.5429 C   0  0  0  0  0  0  0  0  0  0  0  0
   -7.3055    0.9406   -1.3520 C   0  0  0  0  0  0  0  0  0  0  0  0
   -6.3432   -0.0226   -1.1891 C   0  0  0  0  0  0  0  0  0  0  0  0
   -8.4769    3.3023   -0.7761 Cl  0  0  0  0  0  0  0  0  0  0  0  0
    8.5904    3.7564   -1.4705 H   0  0  0  0  0  0  0  0  0  0  0  0
    6.4808    2.5572   -2.0187 H   0  0  0  0  0  0  0  0  0  0  0  0
    6.2735    1.3357    2.1508 H   0  0  0  0  0  0  0  0  0  0  0  0
    8.3973    2.6035    2.5277 H   0  0  0  0  0  0  0  0  0  0  0  0
    4.8084    0.4851    1.7996 H   0  0  0  0  0  0  0  0  0  0  0  0
    3.2670    0.5487    0.8977 H   0  0  0  0  0  0  0  0  0  0  0  0
    4.0499   -1.8198    1.1809 H   0  0  0  0  0  0  0  0  0  0  0  0
    5.5924   -1.4493    0.4201 H   0  0  0  0  0  0  0  0  0  0  0  0
    4.7613   -1.9526   -1.5926 H   0  0  0  0  0  0  0  0  0  0  0  0
    3.3214   -0.4353   -2.7990 H   0  0  0  0  0  0  0  0  0  0  0  0
    2.5441    0.1848   -1.3390 H   0  0  0  0  0  0  0  0  0  0  0  0
    4.2223    1.8228   -2.1167 H   0  0  0  0  0  0  0  0  0  0  0  0
    5.4939    0.5543   -2.1841 H   0  0  0  0  0  0  0  0  0  0  0  0
    1.9850   -0.3531    0.4773 H   0  0  0  0  0  0  0  0  0  0  0  0
    0.9504   -1.3449    1.5532 H   0  0  0  0  0  0  0  0  0  0  0  0
    0.2015   -0.3974   -1.3287 H   0  0  0  0  0  0  0  0  0  0  0  0
   -0.4515    0.2581    0.1948 H   0  0  0  0  0  0  0  0  0  0  0  0
   -1.3941   -3.7673   -0.8274 H   0  0  0  0  0  0  0  0  0  0  0  0
   -0.3947   -2.8247   -1.9707 H   0  0  0  0  0  0  0  0  0  0  0  0
    0.4572   -3.8085    0.8649 H   0  0  0  0  0  0  0  0  0  0  0  0
    1.0916   -4.3692   -0.7125 H   0  0  0  0  0  0  0  0  0  0  0  0
   -4.3270   -1.7542   -0.6573 H   0  0  0  0  0  0  0  0  0  0  0  0
   -4.2107    2.3762    2.1617 H   0  0  0  0  0  0  0  0  0  0  0  0
   -2.4715    0.6144    2.4483 H   0  0  0  0  0  0  0  0  0  0  0  0
   -6.2522    3.2196    1.0085 H   0  0  0  0  0  0  0  0  0  0  0  0
   -8.1082    0.8304   -2.0823 H   0  0  0  0  0  0  0  0  0  0  0  0
   -6.3586   -0.9320   -1.7927 H   0  0  0  0  0  0  0  0  0  0  0  0
  1  6  2  0  0  0  0
  2  1  1  0  0  0  0
  3  2  2  0  0  0  0
  3  4  1  0  0  0  0
  4  5  2  0  0  0  0
  5  6  1  0  0  0  0
  5 37  1  0  0  0  0
  6 38  1  0  0  0  0
  7  4  1  0  0  0  0
  7  8  1  0  0  0  0
  8 40  1  0  0  0  0
  8 39  1  0  0  0  0
  9 42  1  0  0  0  0
  9  8  1  0  0  0  0
  9 41  1  0  0  0  0
 10 13  1  0  0  0  0
 10  9  1  0  0  0  0
 11 12  1  0  0  0  0
 11 45  1  0  0  0  0
 11 10  1  0  0  0  0
 12  7  1  0  0  0  0
 13 15  1  0  0  0  0
 14 13  2  0  0  0  0
 15 16  1  0  0  0  0
 16 48  1  0  0  0  0
 16 49  1  0  0  0  0
 17 51  1  0  0  0  0
 17 16  1  0  0  0  0
 18 17  1  0  0  0  0
 18 21  1  0  0  0  0
 19 52  1  0  0  0  0
 19 18  1  0  0  0  0
 19 20  1  0  0  0  0
 20 15  1  0  0  0  0
 20 54  1  0  0  0  0
 21 23  2  0  0  0  0
 22 21  2  0  0  0  0
 24 21  1  0  0  0  0
 24 29  2  0  0  0  0
 25 24  1  0  0  0  0
 26 25  2  0  0  0  0
 26 27  1  0  0  0  0
 27 28  2  0  0  0  0
 28 29  1  0  0  0  0
 28 57  1  0  0  0  0
 29 58  1  0  0  0  0
 30 27  1  0  0  0  0
 30 59  1  0  0  0  0
 31 30  2  0  0  0  0
 32 33  2  0  0  0  0
 32 31  1  0  0  0  0
 33 26  1  0  0  0  0
 34 31  1  0  0  0  0
 35  2  1  0  0  0  0
 36  3  1  0  0  0  0
 43 10  1  0  0  0  0
 44 11  1  0  0  0  0
 46 12  1  0  0  0  0
 47 12  1  0  0  0  0
 50 17  1  0  0  0  0
 53 19  1  0  0  0  0
 55 20  1  0  0  0  0
 56 25  1  0  0  0  0
 60 32  1  0  0  0  0
 61 33  1  0  0  0  0
M  END
