omegapdb_1qxw_33.log
 OpenBabel10161801213D
Gaussian 16 # PM6 Opt
 36 36  0  0  1  0  0  0  0  0999 V2000
   -4.6923    0.4534   -0.7580 C   0  0  0  0  0  0  0  0  0  0  0  0
   -4.5914   -0.6652    0.2617 C   0  0  0  0  0  0  0  0  0  0  0  0
   -3.6576   -0.6565   -0.9371 C   0  0  0  0  0  0  0  0  0  0  0  0
   -2.2130   -0.4571   -0.8050 N   0  0  0  0  0  0  0  0  0  0  0  0
   -1.7670    0.3776    0.3439 C   0  0  0  0  0  0  0  0  0  0  0  0
   -0.3108   -0.0149    0.6774 C   0  0  0  0  0  0  0  0  0  0  0  0
    0.7888    0.6334   -0.2167 C   0  0  1  0  0  0  0  0  0  0  0  0
    0.5839    2.1080   -0.1892 N   0  0  0  0  0  0  0  0  0  0  0  0
    2.1871    0.1745    0.2431 C   0  0  0  0  0  0  0  0  0  0  0  0
    3.2822    0.5445   -0.7619 C   0  0  0  0  0  0  0  0  0  0  0  0
    4.6685    0.0553   -0.3154 C   0  0  0  0  0  0  0  0  0  0  0  0
    4.8360   -1.4560   -0.4539 C   0  0  0  0  0  0  0  0  0  0  0  0
   -0.0767   -1.4187    0.6781 O   0  0  0  0  0  0  0  0  0  0  0  0
   -0.1194    0.3731    2.0435 O   0  0  0  0  0  0  0  0  0  0  0  0
   -5.5502    0.5010   -1.4228 H   0  0  0  0  0  0  0  0  0  0  0  0
   -4.3742    1.4555   -0.4828 H   0  0  0  0  0  0  0  0  0  0  0  0
   -4.2060   -0.4474    1.2575 H   0  0  0  0  0  0  0  0  0  0  0  0
   -5.3746   -1.4176    0.3183 H   0  0  0  0  0  0  0  0  0  0  0  0
   -3.8369   -1.4039   -1.7310 H   0  0  0  0  0  0  0  0  0  0  0  0
   -1.8486   -0.0493   -1.6789 H   0  0  0  0  0  0  0  0  0  0  0  0
   -1.8244    1.4738    0.1562 H   0  0  0  0  0  0  0  0  0  0  0  0
   -2.3956    0.1875    1.2455 H   0  0  0  0  0  0  0  0  0  0  0  0
    0.6137    0.2858   -1.2694 H   0  0  0  0  0  0  0  0  0  0  0  0
    1.3297    2.5761   -0.6979 H   0  0  0  0  0  0  0  0  0  0  0  0
    0.6220    2.4492    0.7722 H   0  0  0  0  0  0  0  0  0  0  0  0
    2.1701   -0.9290    0.3853 H   0  0  0  0  0  0  0  0  0  0  0  0
    2.4168    0.5966    1.2395 H   0  0  0  0  0  0  0  0  0  0  0  0
    3.0402    0.1193   -1.7559 H   0  0  0  0  0  0  0  0  0  0  0  0
    3.3149    1.6421   -0.9025 H   0  0  0  0  0  0  0  0  0  0  0  0
    4.8551    0.3575    0.7339 H   0  0  0  0  0  0  0  0  0  0  0  0
    5.4448    0.5683   -0.9176 H   0  0  0  0  0  0  0  0  0  0  0  0
    5.8295   -1.7778   -0.1234 H   0  0  0  0  0  0  0  0  0  0  0  0
    4.7113   -1.7825   -1.4925 H   0  0  0  0  0  0  0  0  0  0  0  0
    4.0968   -1.9998    0.1469 H   0  0  0  0  0  0  0  0  0  0  0  0
   -0.8669   -1.9304    0.3726 H   0  0  0  0  0  0  0  0  0  0  0  0
    0.3441   -0.3428    2.5338 H   0  0  0  0  0  0  0  0  0  0  0  0
  1 16  1  0  0  0  0
  1  2  1  0  0  0  0
  2 18  1  0  0  0  0
  2 17  1  0  0  0  0
  3  4  1  0  0  0  0
  3  1  1  0  0  0  0
  3  2  1  0  0  0  0
  4  5  1  0  0  0  0
  5  6  1  0  0  0  0
  5 22  1  0  0  0  0
  6 13  1  0  0  0  0
  6 14  1  0  0  0  0
  7 23  1  6  0  0  0
  7  8  1  0  0  0  0
  7  9  1  0  0  0  0
  7  6  1  0  0  0  0
  8 25  1  0  0  0  0
  9 26  1  0  0  0  0
  9 27  1  0  0  0  0
 10 11  1  0  0  0  0
 10  9  1  0  0  0  0
 11 30  1  0  0  0  0
 12 11  1  0  0  0  0
 12 32  1  0  0  0  0
 12 34  1  0  0  0  0
 14 36  1  0  0  0  0
 15  1  1  0  0  0  0
 19  3  1  0  0  0  0
 20  4  1  0  0  0  0
 21  5  1  0  0  0  0
 24  8  1  0  0  0  0
 28 10  1  0  0  0  0
 29 10  1  0  0  0  0
 31 11  1  0  0  0  0
 33 12  1  0  0  0  0
 35 13  1  0  0  0  0
M  END
