omegapdb_1qxw_10.log
 OpenBabel10161801213D
Gaussian 16 # PM6 Opt Geom=check
 36 36  0  0  1  0  0  0  0  0999 V2000
   -4.4468   -0.8378    0.4189 C   0  0  0  0  0  0  0  0  0  0  0  0
   -3.8894   -1.5560   -0.7958 C   0  0  0  0  0  0  0  0  0  0  0  0
   -3.0922   -0.4306   -0.1385 C   0  0  0  0  0  0  0  0  0  0  0  0
   -1.9035   -0.6992    0.6762 N   0  0  0  0  0  0  0  0  0  0  0  0
   -0.6374   -0.5370   -0.0943 C   0  0  0  0  0  0  0  0  0  0  0  0
   -0.1868    0.9389   -0.0117 C   0  0  0  0  0  0  0  0  0  0  0  0
    1.3202    1.1776   -0.3691 C   0  0  1  0  0  0  0  0  0  0  0  0
    1.5925    2.5966   -0.7112 N   0  0  0  0  0  0  0  0  0  0  0  0
    2.2458    0.7510    0.7869 C   0  0  0  0  0  0  0  0  0  0  0  0
    2.5823   -0.7432    0.7896 C   0  0  0  0  0  0  0  0  0  0  0  0
    3.4753   -1.1490   -0.3904 C   0  0  0  0  0  0  0  0  0  0  0  0
    3.7668   -2.6472   -0.3941 C   0  0  0  0  0  0  0  0  0  0  0  0
   -0.9786    1.6657   -0.9738 O   0  0  0  0  0  0  0  0  0  0  0  0
   -0.4500    1.5606    1.2293 O   0  0  0  0  0  0  0  0  0  0  0  0
   -4.5132   -1.3628    1.3691 H   0  0  0  0  0  0  0  0  0  0  0  0
   -5.2914   -0.1619    0.3048 H   0  0  0  0  0  0  0  0  0  0  0  0
   -4.3397   -1.3910   -1.7714 H   0  0  0  0  0  0  0  0  0  0  0  0
   -3.5644   -2.5878   -0.7042 H   0  0  0  0  0  0  0  0  0  0  0  0
   -2.9966    0.5279   -0.6801 H   0  0  0  0  0  0  0  0  0  0  0  0
   -1.9416   -1.6325    1.0989 H   0  0  0  0  0  0  0  0  0  0  0  0
    0.1603   -1.1851    0.3518 H   0  0  0  0  0  0  0  0  0  0  0  0
   -0.7256   -0.8210   -1.1666 H   0  0  0  0  0  0  0  0  0  0  0  0
    1.5473    0.5697   -1.2871 H   0  0  0  0  0  0  0  0  0  0  0  0
    1.4047    3.2007    0.0857 H   0  0  0  0  0  0  0  0  0  0  0  0
    0.9786    2.8969   -1.4682 H   0  0  0  0  0  0  0  0  0  0  0  0
    3.1871    1.3398    0.7236 H   0  0  0  0  0  0  0  0  0  0  0  0
    1.7836    1.0358    1.7552 H   0  0  0  0  0  0  0  0  0  0  0  0
    1.6462   -1.3460    0.7828 H   0  0  0  0  0  0  0  0  0  0  0  0
    3.0879   -0.9975    1.7423 H   0  0  0  0  0  0  0  0  0  0  0  0
    4.4259   -0.5803   -0.3516 H   0  0  0  0  0  0  0  0  0  0  0  0
    2.9961   -0.8543   -1.3459 H   0  0  0  0  0  0  0  0  0  0  0  0
    4.2750   -2.9620    0.5246 H   0  0  0  0  0  0  0  0  0  0  0  0
    4.4157   -2.9203   -1.2345 H   0  0  0  0  0  0  0  0  0  0  0  0
    2.8505   -3.2405   -0.4825 H   0  0  0  0  0  0  0  0  0  0  0  0
   -1.3882    2.4501   -0.5520 H   0  0  0  0  0  0  0  0  0  0  0  0
   -1.2189    1.1302    1.6971 H   0  0  0  0  0  0  0  0  0  0  0  0
  1 15  1  0  0  0  0
  2 18  1  0  0  0  0
  2  3  1  0  0  0  0
  2  1  1  0  0  0  0
  3  1  1  0  0  0  0
  3  4  1  0  0  0  0
  4 20  1  0  0  0  0
  5  6  1  0  0  0  0
  5 21  1  0  0  0  0
  5  4  1  0  0  0  0
  6 14  1  0  0  0  0
  7 23  1  6  0  0  0
  7  6  1  0  0  0  0
  7  9  1  0  0  0  0
  8  7  1  0  0  0  0
  8 24  1  0  0  0  0
  9 10  1  0  0  0  0
  9 27  1  0  0  0  0
 10 29  1  0  0  0  0
 11 30  1  0  0  0  0
 11 10  1  0  0  0  0
 12 11  1  0  0  0  0
 12 32  1  0  0  0  0
 13 35  1  0  0  0  0
 13  6  1  0  0  0  0
 14 36  1  0  0  0  0
 16  1  1  0  0  0  0
 17  2  1  0  0  0  0
 19  3  1  0  0  0  0
 22  5  1  0  0  0  0
 25  8  1  0  0  0  0
 26  9  1  0  0  0  0
 28 10  1  0  0  0  0
 31 11  1  0  0  0  0
 33 12  1  0  0  0  0
 34 12  1  0  0  0  0
M  END
